Candidate_5
     RDKit          3D

 43 45  0  0  0  0  0  0  0  0999 V2000
   -2.8158    1.6088   -2.0771 C   0  0  0  0  0  0  0  0  0  0  0  0
   -3.6040    1.4623   -0.8928 N   0  0  0  0  0  0  0  0  0  0  0  0
   -4.2338    0.1938   -0.7222 C   0  0  0  0  0  0  0  0  0  0  0  0
   -3.5641   -0.6921    0.2862 C   0  0  0  0  0  0  0  0  0  0  0  0
   -3.3225   -0.0725    1.5389 N   0  0  0  0  0  0  0  0  0  0  0  0
   -2.2053   -0.8341    2.5434 S   0  0  0  0  0  0  0  0  0  0  0  0
   -2.5727   -2.2164    2.9468 O   0  0  0  0  0  0  0  0  0  0  0  0
   -2.1363   -0.0295    3.8347 O   0  0  0  0  0  0  0  0  0  0  0  0
   -0.6348   -0.8837    1.7725 C   0  0  0  0  0  0  0  0  0  0  0  0
    0.2265    0.1732    1.9917 C   0  0  0  0  0  0  0  0  0  0  0  0
    1.4935    0.2137    1.4176 C   0  0  0  0  0  0  0  0  0  0  0  0
    1.8603   -0.8533    0.6129 C   0  0  0  0  0  0  0  0  0  0  0  0
    3.1564   -0.8528    0.0017 N   0  0  0  0  0  0  0  0  0  0  0  0
    3.2835   -0.2560   -1.2900 C   0  0  0  0  0  0  0  0  0  0  0  0
    2.2550    0.2356   -1.8208 O   0  0  0  0  0  0  0  0  0  0  0  0
    4.5974   -0.2479   -1.9254 C   0  0  0  0  0  0  0  0  0  0  0  0
    5.7741   -0.7591   -1.4240 C   0  0  0  0  0  0  0  0  0  0  0  0
    6.7237   -0.5006   -2.4047 C   0  0  0  0  0  0  0  0  0  0  0  0
    6.0859    0.1467   -3.4406 C   0  0  0  0  0  0  0  0  0  0  0  0
    4.8298    0.2753   -3.1146 O   0  0  0  0  0  0  0  0  0  0  0  0
    0.9977   -1.9203    0.3883 C   0  0  0  0  0  0  0  0  0  0  0  0
   -0.2723   -1.9504    0.9699 C   0  0  0  0  0  0  0  0  0  0  0  0
   -3.3439    1.3371    1.5675 C   0  0  0  0  0  0  0  0  0  0  0  0
   -2.9924    2.0096    0.2719 C   0  0  0  0  0  0  0  0  0  0  0  0
   -3.2812    2.2149   -2.8751 H   0  0  0  0  0  0  0  0  0  0  0  0
   -1.8077    2.0135   -1.7890 H   0  0  0  0  0  0  0  0  0  0  0  0
   -2.5985    0.5783   -2.4613 H   0  0  0  0  0  0  0  0  0  0  0  0
   -4.2737   -0.2943   -1.7150 H   0  0  0  0  0  0  0  0  0  0  0  0
   -5.2960    0.3887   -0.4223 H   0  0  0  0  0  0  0  0  0  0  0  0
   -2.6532   -1.0945   -0.2050 H   0  0  0  0  0  0  0  0  0  0  0  0
   -4.2317   -1.5689    0.4414 H   0  0  0  0  0  0  0  0  0  0  0  0
   -0.0977    0.9991    2.6337 H   0  0  0  0  0  0  0  0  0  0  0  0
    2.1718    1.0345    1.5834 H   0  0  0  0  0  0  0  0  0  0  0  0
    3.9988   -1.2693    0.4649 H   0  0  0  0  0  0  0  0  0  0  0  0
    5.9241   -1.2587   -0.4634 H   0  0  0  0  0  0  0  0  0  0  0  0
    7.7733   -0.7678   -2.3474 H   0  0  0  0  0  0  0  0  0  0  0  0
    6.5040    0.5029   -4.3727 H   0  0  0  0  0  0  0  0  0  0  0  0
    1.3158   -2.7412   -0.2478 H   0  0  0  0  0  0  0  0  0  0  0  0
   -0.9444   -2.7797    0.7961 H   0  0  0  0  0  0  0  0  0  0  0  0
   -4.3410    1.6921    1.8903 H   0  0  0  0  0  0  0  0  0  0  0  0
   -2.6075    1.7130    2.3171 H   0  0  0  0  0  0  0  0  0  0  0  0
   -3.2619    3.0850    0.3111 H   0  0  0  0  0  0  0  0  0  0  0  0
   -1.8792    1.9652    0.1047 H   0  0  0  0  0  0  0  0  0  0  0  0
  1  2  1  0
  2  3  1  0
  3  4  1  0
  4  5  1  0
  5  6  1  0
  6  7  2  0
  6  8  2  0
  6  9  1  0
  9 10  1  0
 10 11  2  0
 11 12  1  0
 12 13  1  0
 13 14  1  0
 14 15  2  0
 14 16  1  0
 16 17  2  0
 17 18  1  0
 18 19  2  0
 19 20  1  0
 12 21  2  0
 21 22  1  0
  5 23  1  0
 23 24  1  0
 24  2  1  0
 22  9  2  0
 20 16  1  0
  1 25  1  0
  1 26  1  0
  1 27  1  0
  3 28  1  0
  3 29  1  0
  4 30  1  0
  4 31  1  0
 10 32  1  0
 11 33  1  0
 13 34  1  0
 17 35  1  0
 18 36  1  0
 19 37  1  0
 21 38  1  0
 22 39  1  0
 23 40  1  0
 23 41  1  0
 24 42  1  0
 24 43  1  0
M  END
$$$$
