Candidate_4
     RDKit          3D

 47 49  0  0  0  0  0  0  0  0999 V2000
    7.8138   -0.5120    0.9173 C   0  0  0  0  0  0  0  0  0  0  0  0
    6.3878   -0.5403    0.4547 C   0  0  0  0  0  0  0  0  0  0  0  0
    5.5056   -1.4708    0.9505 C   0  0  0  0  0  0  0  0  0  0  0  0
    4.2112   -1.4698    0.5101 C   0  0  0  0  0  0  0  0  0  0  0  0
    3.7201   -0.5637   -0.4312 C   0  0  0  0  0  0  0  0  0  0  0  0
    2.4162   -0.6881   -0.7675 O   0  0  0  0  0  0  0  0  0  0  0  0
    1.5989    0.0080   -1.6376 C   0  0  0  0  0  0  0  0  0  0  0  0
    0.2030   -0.5718   -1.5983 C   0  0  0  0  0  0  0  0  0  0  0  0
   -0.7697   -0.1704   -0.7181 C   0  0  0  0  0  0  0  0  0  0  0  0
   -1.9010   -0.9112   -0.9722 C   0  0  0  0  0  0  0  0  0  0  0  0
   -3.1643   -0.7971   -0.2491 C   0  0  0  0  0  0  0  0  0  0  0  0
   -4.1535   -1.5231   -0.5230 O   0  0  0  0  0  0  0  0  0  0  0  0
   -3.2963    0.1520    0.7945 N   0  0  0  0  0  0  0  0  0  0  0  0
   -4.4731    0.3634    1.5778 C   0  0  0  0  0  0  0  0  0  0  0  0
   -5.6505    0.7432    0.7956 C   0  0  0  0  0  0  0  0  0  0  0  0
   -6.9708    0.5284    1.2050 C   0  0  0  0  0  0  0  0  0  0  0  0
   -7.3970   -0.0941    2.4874 C   0  0  0  0  0  0  0  0  0  0  0  0
   -7.7805    0.9963    0.2261 N   0  0  0  0  0  0  0  0  0  0  0  0
   -7.0540    1.4755   -0.7383 O   0  0  0  0  0  0  0  0  0  0  0  0
   -5.7715    1.3432   -0.4366 C   0  0  0  0  0  0  0  0  0  0  0  0
   -4.6144    1.7632   -1.2724 C   0  0  0  0  0  0  0  0  0  0  0  0
   -1.5656   -1.7245   -1.9890 N   0  0  0  0  0  0  0  0  0  0  0  0
   -0.3270   -1.5029   -2.3341 O   0  0  0  0  0  0  0  0  0  0  0  0
    4.6091    0.3694   -0.9281 C   0  0  0  0  0  0  0  0  0  0  0  0
    5.9338    0.3658   -0.4754 C   0  0  0  0  0  0  0  0  0  0  0  0
    6.9295    1.3595   -0.9791 C   0  0  0  0  0  0  0  0  0  0  0  0
    8.0413    0.4854    1.3269 H   0  0  0  0  0  0  0  0  0  0  0  0
    7.9248   -1.2955    1.7084 H   0  0  0  0  0  0  0  0  0  0  0  0
    8.4718   -0.7787    0.0677 H   0  0  0  0  0  0  0  0  0  0  0  0
    5.8845   -2.1754    1.6838 H   0  0  0  0  0  0  0  0  0  0  0  0
    3.5429   -2.2176    0.9225 H   0  0  0  0  0  0  0  0  0  0  0  0
    1.9416   -0.2289   -2.6888 H   0  0  0  0  0  0  0  0  0  0  0  0
    1.5410    1.0858   -1.4542 H   0  0  0  0  0  0  0  0  0  0  0  0
   -0.6315    0.6001    0.0339 H   0  0  0  0  0  0  0  0  0  0  0  0
   -2.4410    0.7486    0.9915 H   0  0  0  0  0  0  0  0  0  0  0  0
   -4.7449   -0.5521    2.1836 H   0  0  0  0  0  0  0  0  0  0  0  0
   -4.2694    1.1401    2.3724 H   0  0  0  0  0  0  0  0  0  0  0  0
   -8.5061   -0.0924    2.5318 H   0  0  0  0  0  0  0  0  0  0  0  0
   -6.9305    0.4846    3.3041 H   0  0  0  0  0  0  0  0  0  0  0  0
   -7.0623   -1.1452    2.5855 H   0  0  0  0  0  0  0  0  0  0  0  0
   -4.4077    1.0498   -2.0983 H   0  0  0  0  0  0  0  0  0  0  0  0
   -3.7335    2.0081   -0.6610 H   0  0  0  0  0  0  0  0  0  0  0  0
   -4.9263    2.7163   -1.7829 H   0  0  0  0  0  0  0  0  0  0  0  0
    4.2705    1.0830   -1.6572 H   0  0  0  0  0  0  0  0  0  0  0  0
    7.6883    0.9378   -1.6403 H   0  0  0  0  0  0  0  0  0  0  0  0
    7.4792    1.8331   -0.1158 H   0  0  0  0  0  0  0  0  0  0  0  0
    6.4276    2.2079   -1.4824 H   0  0  0  0  0  0  0  0  0  0  0  0
  1  2  1  0
  2  3  1  0
  3  4  2  0
  4  5  1  0
  5  6  1  0
  6  7  1  0
  7  8  1  0
  8  9  2  0
  9 10  1  0
 10 11  1  0
 11 12  2  0
 11 13  1  0
 13 14  1  0
 14 15  1  0
 15 16  1  0
 16 17  1  0
 16 18  2  0
 18 19  1  0
 19 20  1  0
 20 21  1  0
 10 22  2  0
 22 23  1  0
  5 24  2  0
 24 25  1  0
 25 26  1  0
 25  2  2  0
 23  8  1  0
 20 15  2  0
  1 27  1  0
  1 28  1  0
  1 29  1  0
  3 30  1  0
  4 31  1  0
  7 32  1  0
  7 33  1  0
  9 34  1  0
 13 35  1  0
 14 36  1  0
 14 37  1  0
 17 38  1  0
 17 39  1  0
 17 40  1  0
 21 41  1  0
 21 42  1  0
 21 43  1  0
 24 44  1  0
 26 45  1  0
 26 46  1  0
 26 47  1  0
M  END
$$$$
