Candidate_3
     RDKit          3D

 41 43  0  0  0  0  0  0  0  0999 V2000
   -2.8786    2.7288   -1.3821 C   0  0  0  0  0  0  0  0  0  0  0  0
   -2.6521    1.3160   -0.9088 C   0  0  0  0  0  0  0  0  0  0  0  0
   -1.5120    0.7995   -1.3290 C   0  0  0  0  0  0  0  0  0  0  0  0
   -1.0036   -0.5028   -1.0607 N   0  0  0  0  0  0  0  0  0  0  0  0
    0.0938   -0.9800   -1.8932 C   0  0  0  0  0  0  0  0  0  0  0  0
    1.4259   -0.6424   -1.3685 C   0  0  0  0  0  0  0  0  0  0  0  0
    2.0045    0.5574   -1.7560 C   0  0  0  0  0  0  0  0  0  0  0  0
    3.2545    0.9477   -1.3068 C   0  0  0  0  0  0  0  0  0  0  0  0
    3.9406    0.1198   -0.4514 C   0  0  0  0  0  0  0  0  0  0  0  0
    5.5316    0.5116    0.1820 S   0  0  0  0  0  0  0  0  0  0  0  0
    5.4091    1.3842    1.6635 N   0  0  0  0  0  0  0  0  0  0  0  0
    6.3498   -0.7298    0.3625 O   0  0  0  0  0  0  0  0  0  0  0  0
    6.2210    1.3634   -0.8555 O   0  0  0  0  0  0  0  0  0  0  0  0
    3.3923   -1.0827   -0.0459 C   0  0  0  0  0  0  0  0  0  0  0  0
    2.1532   -1.4367   -0.5103 C   0  0  0  0  0  0  0  0  0  0  0  0
   -1.4459   -1.4172   -0.0543 C   0  0  0  0  0  0  0  0  0  0  0  0
   -0.9919   -2.5831   -0.0595 O   0  0  0  0  0  0  0  0  0  0  0  0
   -2.3992   -1.1250    1.0095 C   0  0  0  0  0  0  0  0  0  0  0  0
   -2.2181   -1.9483    2.1162 C   0  0  0  0  0  0  0  0  0  0  0  0
   -3.0452   -1.7939    3.2085 C   0  0  0  0  0  0  0  0  0  0  0  0
   -4.0280   -0.8154    3.1511 C   0  0  0  0  0  0  0  0  0  0  0  0
   -4.1703   -0.0317    2.0481 N   0  0  0  0  0  0  0  0  0  0  0  0
   -3.3770   -0.1546    0.9575 C   0  0  0  0  0  0  0  0  0  0  0  0
   -3.7595    0.8174   -0.0760 C   0  0  0  0  0  0  0  0  0  0  0  0
   -3.6014    3.2491   -0.7286 H   0  0  0  0  0  0  0  0  0  0  0  0
   -1.8964    3.2008   -1.4589 H   0  0  0  0  0  0  0  0  0  0  0  0
   -3.2829    2.6223   -2.4109 H   0  0  0  0  0  0  0  0  0  0  0  0
   -0.8681    1.4274   -1.9570 H   0  0  0  0  0  0  0  0  0  0  0  0
   -0.0295   -2.1019   -1.9351 H   0  0  0  0  0  0  0  0  0  0  0  0
   -0.0474   -0.5795   -2.9151 H   0  0  0  0  0  0  0  0  0  0  0  0
    1.4991    1.2280   -2.4217 H   0  0  0  0  0  0  0  0  0  0  0  0
    3.7188    1.8797   -1.5999 H   0  0  0  0  0  0  0  0  0  0  0  0
    4.4036    1.6057    1.8949 H   0  0  0  0  0  0  0  0  0  0  0  0
    6.0179    2.2330    1.6674 H   0  0  0  0  0  0  0  0  0  0  0  0
    3.9336   -1.7382    0.6305 H   0  0  0  0  0  0  0  0  0  0  0  0
    1.7434   -2.3694   -0.1879 H   0  0  0  0  0  0  0  0  0  0  0  0
   -1.4244   -2.6764    2.0567 H   0  0  0  0  0  0  0  0  0  0  0  0
   -2.9055   -2.4340    4.0709 H   0  0  0  0  0  0  0  0  0  0  0  0
   -4.6868   -0.6767    3.9944 H   0  0  0  0  0  0  0  0  0  0  0  0
   -4.5206    0.2922   -0.7185 H   0  0  0  0  0  0  0  0  0  0  0  0
   -4.3486    1.6665    0.3780 H   0  0  0  0  0  0  0  0  0  0  0  0
  1  2  1  0
  2  3  2  0
  3  4  1  0
  4  5  1  0
  5  6  1  0
  6  7  1  0
  7  8  2  0
  8  9  1  0
  9 10  1  0
 10 11  1  0
 10 12  2  0
 10 13  2  0
  9 14  2  0
 14 15  1  0
  4 16  1  0
 16 17  2  0
 16 18  1  0
 18 19  1  0
 19 20  2  0
 20 21  1  0
 21 22  2  0
 22 23  1  0
 23 24  1  0
 24  2  1  0
 15  6  2  0
 23 18  2  0
  1 25  1  0
  1 26  1  0
  1 27  1  0
  3 28  1  0
  5 29  1  0
  5 30  1  0
  7 31  1  0
  8 32  1  0
 11 33  1  0
 11 34  1  0
 14 35  1  0
 15 36  1  0
 19 37  1  0
 20 38  1  0
 21 39  1  0
 24 40  1  0
 24 41  1  0
M  END
$$$$
