Candidate_2
     RDKit          3D

 49 51  0  0  0  0  0  0  0  0999 V2000
   -2.0597   -1.6310    0.4860 O   0  0  0  0  0  0  0  0  0  0  0  0
   -2.5027   -0.4459    0.5656 C   0  0  0  0  0  0  0  0  0  0  0  0
   -3.9620   -0.1816    0.4890 C   0  0  0  0  0  0  0  0  0  0  0  0
   -4.7722   -1.4280    0.3165 C   0  0  0  0  0  0  0  0  0  0  0  0
   -6.2222   -1.0288    0.2531 C   0  0  0  0  0  0  0  0  0  0  0  0
   -6.9702   -0.9563    1.4096 C   0  0  0  0  0  0  0  0  0  0  0  0
   -8.3143   -0.5887    1.3730 C   0  0  0  0  0  0  0  0  0  0  0  0
   -8.8791   -0.2996    0.1567 C   0  0  0  0  0  0  0  0  0  0  0  0
   -8.1278   -0.3724   -1.0043 C   0  0  0  0  0  0  0  0  0  0  0  0
   -6.7914   -0.7370   -0.9759 C   0  0  0  0  0  0  0  0  0  0  0  0
   -1.6516    0.6830    0.7296 N   0  0  0  0  0  0  0  0  0  0  0  0
   -0.2590    0.5859    0.8170 N   0  0  0  0  0  0  0  0  0  0  0  0
    0.4684    0.6581   -0.4002 C   0  0  0  0  0  0  0  0  0  0  0  0
   -0.2352    0.8057   -1.4558 O   0  0  0  0  0  0  0  0  0  0  0  0
    1.9286    0.5712   -0.4622 C   0  0  0  0  0  0  0  0  0  0  0  0
    2.6452    1.6508    0.3118 C   0  0  0  0  0  0  0  0  0  0  0  0
    4.0992    1.6390    0.0079 C   0  0  0  0  0  0  0  0  0  0  0  0
    4.6324    0.3455   -0.3307 N   0  0  0  0  0  0  0  0  0  0  0  0
    6.0682    0.2665   -0.4680 C   0  0  0  0  0  0  0  0  0  0  0  0
    6.7932    1.3776   -0.2749 N   0  0  0  0  0  0  0  0  0  0  0  0
    8.1517    1.3349   -0.3977 C   0  0  0  0  0  0  0  0  0  0  0  0
    8.7951    0.1383   -0.7241 C   0  0  0  0  0  0  0  0  0  0  0  0
    7.9977   -0.9530   -0.9067 C   0  0  0  0  0  0  0  0  0  0  0  0
    6.6729   -0.8857   -0.7811 N   0  0  0  0  0  0  0  0  0  0  0  0
    3.8646   -0.8427   -0.5369 C   0  0  0  0  0  0  0  0  0  0  0  0
    2.4903   -0.7344    0.0910 C   0  0  0  0  0  0  0  0  0  0  0  0
   -4.3172    0.3418    1.3945 H   0  0  0  0  0  0  0  0  0  0  0  0
   -4.1192    0.4464   -0.4064 H   0  0  0  0  0  0  0  0  0  0  0  0
   -4.5262   -1.9140   -0.6538 H   0  0  0  0  0  0  0  0  0  0  0  0
   -4.6140   -2.1016    1.1805 H   0  0  0  0  0  0  0  0  0  0  0  0
   -6.5517   -1.1790    2.3861 H   0  0  0  0  0  0  0  0  0  0  0  0
   -8.9127   -0.5292    2.2848 H   0  0  0  0  0  0  0  0  0  0  0  0
   -9.9178   -0.0071    0.0542 H   0  0  0  0  0  0  0  0  0  0  0  0
   -8.5592   -0.1452   -1.9900 H   0  0  0  0  0  0  0  0  0  0  0  0
   -6.1861   -0.8024   -1.8516 H   0  0  0  0  0  0  0  0  0  0  0  0
   -2.0522    1.6659    0.7933 H   0  0  0  0  0  0  0  0  0  0  0  0
    0.2603    0.4656    1.7134 H   0  0  0  0  0  0  0  0  0  0  0  0
    2.2557    0.6750   -1.5183 H   0  0  0  0  0  0  0  0  0  0  0  0
    2.4707    1.5135    1.4015 H   0  0  0  0  0  0  0  0  0  0  0  0
    2.1827    2.6460    0.0731 H   0  0  0  0  0  0  0  0  0  0  0  0
    4.6486    1.9502    0.9439 H   0  0  0  0  0  0  0  0  0  0  0  0
    4.3533    2.4225   -0.7349 H   0  0  0  0  0  0  0  0  0  0  0  0
    8.7463    2.2424   -0.2403 H   0  0  0  0  0  0  0  0  0  0  0  0
    9.8686    0.1475   -0.8113 H   0  0  0  0  0  0  0  0  0  0  0  0
    8.4823   -1.8908   -1.1609 H   0  0  0  0  0  0  0  0  0  0  0  0
    3.7511   -0.9834   -1.6398 H   0  0  0  0  0  0  0  0  0  0  0  0
    4.3508   -1.7387   -0.0796 H   0  0  0  0  0  0  0  0  0  0  0  0
    2.6582   -0.6038    1.1930 H   0  0  0  0  0  0  0  0  0  0  0  0
    1.8676   -1.5928   -0.1401 H   0  0  0  0  0  0  0  0  0  0  0  0
  1  2  2  0
  2  3  1  0
  3  4  1  0
  4  5  1  0
  5  6  2  0
  6  7  1  0
  7  8  2  0
  8  9  1  0
  9 10  2  0
  2 11  1  0
 11 12  1  0
 12 13  1  0
 13 14  2  0
 13 15  1  0
 15 16  1  0
 16 17  1  0
 17 18  1  0
 18 19  1  0
 19 20  2  0
 20 21  1  0
 21 22  2  0
 22 23  1  0
 23 24  2  0
 18 25  1  0
 25 26  1  0
 10  5  1  0
 26 15  1  0
 24 19  1  0
  3 27  1  0
  3 28  1  0
  4 29  1  0
  4 30  1  0
  6 31  1  0
  7 32  1  0
  8 33  1  0
  9 34  1  0
 10 35  1  0
 11 36  1  0
 12 37  1  0
 15 38  1  0
 16 39  1  0
 16 40  1  0
 17 41  1  0
 17 42  1  0
 21 43  1  0
 22 44  1  0
 23 45  1  0
 25 46  1  0
 25 47  1  0
 26 48  1  0
 26 49  1  0
M  END
$$$$
