Pazopanib_Ref
     RDKit          3D

 56 59  0  0  0  0  0  0  0  0999 V2000
   -7.6317   -1.9691    0.7279 C   0  0  0  0  0  0  0  0  0  0  0  0
   -6.4878   -1.0498    0.4869 C   0  0  0  0  0  0  0  0  0  0  0  0
   -6.5502    0.3080    0.5860 C   0  0  0  0  0  0  0  0  0  0  0  0
   -5.4327    1.0615    0.3381 C   0  0  0  0  0  0  0  0  0  0  0  0
   -4.2051    0.5180   -0.0188 C   0  0  0  0  0  0  0  0  0  0  0  0
   -4.1596   -0.8583   -0.1143 C   0  0  0  0  0  0  0  0  0  0  0  0
   -5.2752   -1.6283    0.1329 C   0  0  0  0  0  0  0  0  0  0  0  0
   -3.0615    1.3444   -0.2848 N   0  0  0  0  0  0  0  0  0  0  0  0
   -1.8951    0.6849   -0.7742 C   0  0  0  0  0  0  0  0  0  0  0  0
   -1.9169    0.3962   -2.1031 N   0  0  0  0  0  0  0  0  0  0  0  0
   -0.8758   -0.2132   -2.6328 C   0  0  0  0  0  0  0  0  0  0  0  0
    0.2174   -0.5527   -1.8546 C   0  0  0  0  0  0  0  0  0  0  0  0
    0.2458   -0.2622   -0.5026 C   0  0  0  0  0  0  0  0  0  0  0  0
   -0.8422    0.3621   -0.0054 N   0  0  0  0  0  0  0  0  0  0  0  0
    1.3716   -0.6444    0.2598 N   0  0  0  0  0  0  0  0  0  0  0  0
    1.7952   -0.0073    1.4901 C   0  0  0  0  0  0  0  0  0  0  0  0
    3.1149    0.6992    1.1666 C   0  0  0  0  0  0  0  0  0  0  0  0
    3.8441    0.0970    0.0127 C   0  0  0  0  0  0  0  0  0  0  0  0
    3.6396   -1.4004   -0.1408 C   0  0  0  0  0  0  0  0  0  0  0  0
    2.2042   -1.7858   -0.1649 C   0  0  0  0  0  0  0  0  0  0  0  0
    5.2737    0.2954    0.0061 N   0  0  0  0  0  0  0  0  0  0  0  0
    6.1164    0.2043    1.1375 C   0  0  0  0  0  0  0  0  0  0  0  0
    5.7169   -0.0603    2.2986 O   0  0  0  0  0  0  0  0  0  0  0  0
    7.5350    0.4258    0.9525 C   0  0  0  0  0  0  0  0  0  0  0  0
    8.2607    0.7133   -0.1340 C   0  0  0  0  0  0  0  0  0  0  0  0
    9.5915    0.8651   -0.0419 C   0  0  0  0  0  0  0  0  0  0  0  0
   10.1393    0.7050    1.2348 C   0  0  0  0  0  0  0  0  0  0  0  0
    8.7267    0.3329    2.3113 S   0  0  0  0  0  0  0  0  0  0  0  0
   -8.0995    1.0148    1.0313 S   0  0  0  0  0  0  0  0  0  0  0  0
   -9.1414    0.6639    0.0032 O   0  0  0  0  0  0  0  0  0  0  0  0
   -8.5443    0.4392    2.3575 O   0  0  0  0  0  0  0  0  0  0  0  0
   -7.9958    2.7283    1.1000 N   0  0  0  0  0  0  0  0  0  0  0  0
   -8.5560   -1.3934    0.9249 H   0  0  0  0  0  0  0  0  0  0  0  0
   -7.7754   -2.5995   -0.2019 H   0  0  0  0  0  0  0  0  0  0  0  0
   -7.4011   -2.6090    1.6081 H   0  0  0  0  0  0  0  0  0  0  0  0
   -5.5366    2.1459    0.4291 H   0  0  0  0  0  0  0  0  0  0  0  0
   -3.1893   -1.2855   -0.3927 H   0  0  0  0  0  0  0  0  0  0  0  0
   -5.1912   -2.7024    0.0470 H   0  0  0  0  0  0  0  0  0  0  0  0
   -3.1220    2.3696   -0.1144 H   0  0  0  0  0  0  0  0  0  0  0  0
   -0.9079   -0.4386   -3.7077 H   0  0  0  0  0  0  0  0  0  0  0  0
    1.0286   -1.0466   -2.3764 H   0  0  0  0  0  0  0  0  0  0  0  0
    1.0688    0.7410    1.8342 H   0  0  0  0  0  0  0  0  0  0  0  0
    1.9584   -0.8221    2.2262 H   0  0  0  0  0  0  0  0  0  0  0  0
    2.7651    1.7225    0.8029 H   0  0  0  0  0  0  0  0  0  0  0  0
    3.6936    0.9192    2.0610 H   0  0  0  0  0  0  0  0  0  0  0  0
    3.4853    0.5617   -0.9622 H   0  0  0  0  0  0  0  0  0  0  0  0
    4.1227   -1.6962   -1.0935 H   0  0  0  0  0  0  0  0  0  0  0  0
    4.2100   -1.8529    0.7105 H   0  0  0  0  0  0  0  0  0  0  0  0
    1.8350   -2.2960   -1.0463 H   0  0  0  0  0  0  0  0  0  0  0  0
    2.0669   -2.5210    0.6861 H   0  0  0  0  0  0  0  0  0  0  0  0
    5.7587    0.5316   -0.9091 H   0  0  0  0  0  0  0  0  0  0  0  0
    7.7505    0.8307   -1.1352 H   0  0  0  0  0  0  0  0  0  0  0  0
   10.2755    1.1013   -0.8770 H   0  0  0  0  0  0  0  0  0  0  0  0
   11.1772    0.7749    1.5663 H   0  0  0  0  0  0  0  0  0  0  0  0
   -7.8604    3.0475    2.0636 H   0  0  0  0  0  0  0  0  0  0  0  0
   -7.3347    3.0899    0.3966 H   0  0  0  0  0  0  0  0  0  0  0  0
  1  2  1  0
  2  3  2  0
  3  4  1  0
  4  5  2  0
  5  6  1  0
  6  7  2  0
  5  8  1  0
  8  9  1  0
  9 10  2  0
 10 11  1  0
 11 12  2  0
 12 13  1  0
 13 14  2  0
 13 15  1  0
 15 16  1  0
 16 17  1  0
 17 18  1  0
 18 19  1  0
 19 20  1  0
 18 21  1  0
 21 22  1  0
 22 23  2  0
 22 24  1  0
 24 25  2  0
 25 26  1  0
 26 27  2  0
 27 28  1  0
  3 29  1  0
 29 30  2  0
 29 31  2  0
 29 32  1  0
  7  2  1  0
 14  9  1  0
 20 15  1  0
 28 24  1  0
  1 33  1  0
  1 34  1  0
  1 35  1  0
  4 36  1  0
  6 37  1  0
  7 38  1  0
  8 39  1  0
 11 40  1  0
 12 41  1  0
 16 42  1  0
 16 43  1  0
 17 44  1  0
 17 45  1  0
 18 46  1  0
 19 47  1  0
 19 48  1  0
 20 49  1  0
 20 50  1  0
 21 51  1  0
 25 52  1  0
 26 53  1  0
 27 54  1  0
 32 55  1  0
 32 56  1  0
M  END
$$$$
