Candidate_1
     RDKit          3D

 45 46  0  0  0  0  0  0  0  0999 V2000
   -3.8955    0.8286    1.9727 C   0  0  0  0  0  0  0  0  0  0  0  0
   -4.9188    0.7315    0.8466 C   0  0  0  0  0  0  0  0  0  0  0  0
   -6.2632    0.4769    1.4498 C   0  0  0  0  0  0  0  0  0  0  0  0
   -4.8586    1.9681    0.1067 N   0  0  0  0  0  0  0  0  0  0  0  0
   -4.3724    1.7702   -1.5155 S   0  0  0  0  0  0  0  0  0  0  0  0
   -5.3146    0.7940   -2.1935 O   0  0  0  0  0  0  0  0  0  0  0  0
   -4.4715    3.0447   -2.2783 O   0  0  0  0  0  0  0  0  0  0  0  0
   -2.7611    1.0974   -1.6427 C   0  0  0  0  0  0  0  0  0  0  0  0
   -1.7119    2.0060   -1.6688 C   0  0  0  0  0  0  0  0  0  0  0  0
   -0.4060    1.5843   -1.7675 C   0  0  0  0  0  0  0  0  0  0  0  0
   -0.1655    0.2171   -1.8406 C   0  0  0  0  0  0  0  0  0  0  0  0
    1.2708   -0.1828   -1.9462 C   0  0  0  0  0  0  0  0  0  0  0  0
    1.7697   -0.3582   -0.5345 C   0  0  0  0  0  0  0  0  0  0  0  0
    3.1997   -0.7598   -0.4952 C   0  0  0  0  0  0  0  0  0  0  0  0
    3.7819   -0.8965   -1.5935 O   0  0  0  0  0  0  0  0  0  0  0  0
    3.8398   -0.9689    0.7400 N   0  0  0  0  0  0  0  0  0  0  0  0
    5.1809   -1.3494    0.9366 C   0  0  0  0  0  0  0  0  0  0  0  0
    5.6431   -1.5107    2.2449 C   0  0  0  0  0  0  0  0  0  0  0  0
    6.9447   -1.8813    2.4978 C   0  0  0  0  0  0  0  0  0  0  0  0
    7.8015   -2.0965    1.4844 N   0  0  0  0  0  0  0  0  0  0  0  0
    7.4200   -1.9587    0.2185 C   0  0  0  0  0  0  0  0  0  0  0  0
    6.1051   -1.5840   -0.0504 C   0  0  0  0  0  0  0  0  0  0  0  0
   -1.1940   -0.7017   -1.8162 C   0  0  0  0  0  0  0  0  0  0  0  0
   -2.5145   -0.2551   -1.7156 C   0  0  0  0  0  0  0  0  0  0  0  0
   -3.9926    1.8514    2.3848 H   0  0  0  0  0  0  0  0  0  0  0  0
   -2.8851    0.7460    1.5043 H   0  0  0  0  0  0  0  0  0  0  0  0
   -4.0514    0.0613    2.7437 H   0  0  0  0  0  0  0  0  0  0  0  0
   -4.6206   -0.0653    0.1244 H   0  0  0  0  0  0  0  0  0  0  0  0
   -7.0334    1.2070    1.1341 H   0  0  0  0  0  0  0  0  0  0  0  0
   -6.1750    0.3923    2.5471 H   0  0  0  0  0  0  0  0  0  0  0  0
   -6.6246   -0.5150    1.0519 H   0  0  0  0  0  0  0  0  0  0  0  0
   -4.3633    2.6702    0.6529 H   0  0  0  0  0  0  0  0  0  0  0  0
   -1.8931    3.0652   -1.6125 H   0  0  0  0  0  0  0  0  0  0  0  0
    0.4133    2.2992   -1.7876 H   0  0  0  0  0  0  0  0  0  0  0  0
    1.8511    0.5255   -2.5321 H   0  0  0  0  0  0  0  0  0  0  0  0
    1.2601   -1.1868   -2.4242 H   0  0  0  0  0  0  0  0  0  0  0  0
    1.1817   -1.1347   -0.0095 H   0  0  0  0  0  0  0  0  0  0  0  0
    1.6796    0.5769    0.0561 H   0  0  0  0  0  0  0  0  0  0  0  0
    3.2496   -0.8242    1.5986 H   0  0  0  0  0  0  0  0  0  0  0  0
    4.9792   -1.3454    3.0845 H   0  0  0  0  0  0  0  0  0  0  0  0
    7.2398   -1.9891    3.5308 H   0  0  0  0  0  0  0  0  0  0  0  0
    8.1311   -2.1384   -0.5721 H   0  0  0  0  0  0  0  0  0  0  0  0
    5.8527   -1.4882   -1.0843 H   0  0  0  0  0  0  0  0  0  0  0  0
   -0.9681   -1.7706   -1.8757 H   0  0  0  0  0  0  0  0  0  0  0  0
   -3.3405   -0.9526   -1.6949 H   0  0  0  0  0  0  0  0  0  0  0  0
  1  2  1  0
  2  3  1  0
  2  4  1  0
  4  5  1  0
  5  6  2  0
  5  7  2  0
  5  8  1  0
  8  9  1  0
  9 10  2  0
 10 11  1  0
 11 12  1  0
 12 13  1  0
 13 14  1  0
 14 15  2  0
 14 16  1  0
 16 17  1  0
 17 18  2  0
 18 19  1  0
 19 20  2  0
 20 21  1  0
 21 22  2  0
 11 23  2  0
 23 24  1  0
 24  8  2  0
 22 17  1  0
  1 25  1  0
  1 26  1  0
  1 27  1  0
  2 28  1  0
  3 29  1  0
  3 30  1  0
  3 31  1  0
  4 32  1  0
  9 33  1  0
 10 34  1  0
 12 35  1  0
 12 36  1  0
 13 37  1  0
 13 38  1  0
 16 39  1  0
 18 40  1  0
 19 41  1  0
 21 42  1  0
 22 43  1  0
 23 44  1  0
 24 45  1  0
M  END
$$$$
