
     RDKit          2D

  8  8  0  0  0  0  0  0  0  0999 V2000
    2.8515   -0.9330    0.0000 C   0  0  0  0  0  0  0  0  0  0  0  0
    1.7267    0.0594    0.0000 C   0  0  0  0  0  0  0  0  0  0  0  0
    1.2488    1.4812    0.0000 O   0  0  0  0  0  0  0  0  0  0  0  0
    0.2564    0.3564    0.0000 C   0  0  0  0  0  0  0  0  0  0  0  0
   -1.1654   -0.1215    0.0000 P   0  0  0  0  0  0  0  0  0  0  0  0
   -2.5872   -0.5995    0.0000 O   0  0  0  0  0  0  0  0  0  0  0  0
   -1.6433    1.3003    0.0000 O   0  0  0  0  0  0  0  0  0  0  0  0
   -0.6875   -1.5433    0.0000 O   0  0  0  0  0  0  0  0  0  0  0  0
  2  1  1  1
  2  3  1  0
  3  4  1  0
  4  5  1  1
  5  6  2  0
  5  7  1  0
  5  8  1  0
  4  2  1  0
M  END
>  <zinc_id>  (1) 
ZINC000001530427

>  <smiles>  (1) 
C[C@@H]1O[C@@H]1P(=O)(O)O

$$$$

     RDKit          3D

 25 28  0  0  0  0  0  0  0  0999 V2000
   -0.1135    0.4276   -2.8664 Cl  0  0  0  0  0  0  0  0  0  0  0  0
   -0.7418   -0.9421   -1.9990 C   0  0  0  0  0  0  0  0  0  0  0  0
   -1.3733   -1.9932   -2.6370 C   0  0  0  0  0  0  0  0  0  0  0  0
   -1.8893   -3.0905   -1.9920 C   0  0  0  0  0  0  0  0  0  0  0  0
   -1.7672   -3.1431   -0.6186 C   0  0  0  0  0  0  0  0  0  0  0  0
   -1.1476   -2.1204    0.0472 C   0  0  0  0  0  0  0  0  0  0  0  0
   -0.6254   -1.0043   -0.6343 C   0  0  0  0  0  0  0  0  0  0  0  0
    0.0351    0.0541    0.1653 C   0  0  0  0  0  0  0  0  0  0  0  0
    1.4324    0.1689   -0.2770 C   0  0  0  0  0  0  0  0  0  0  0  0
    2.1478   -1.0106   -0.3365 C   0  0  0  0  0  0  0  0  0  0  0  0
    3.4695   -1.0798   -0.7158 C   0  0  0  0  0  0  0  0  0  0  0  0
    4.1225    0.0923   -1.0572 C   0  0  0  0  0  0  0  0  0  0  0  0
    3.4192    1.2820   -1.0026 C   0  0  0  0  0  0  0  0  0  0  0  0
    2.0970    1.3179   -0.6188 C   0  0  0  0  0  0  0  0  0  0  0  0
   -0.7287    1.3140    0.1620 C   0  0  0  0  0  0  0  0  0  0  0  0
   -0.2785    2.5209   -0.3007 C   0  0  0  0  0  0  0  0  0  0  0  0
   -1.0639    3.6413   -0.2649 C   0  0  0  0  0  0  0  0  0  0  0  0
   -2.3371    3.6071    0.2356 C   0  0  0  0  0  0  0  0  0  0  0  0
   -2.7998    2.3961    0.7042 C   0  0  0  0  0  0  0  0  0  0  0  0
   -2.0099    1.2677    0.6685 C   0  0  0  0  0  0  0  0  0  0  0  0
    0.0389   -0.3899    1.5623 N   0  0  0  0  0  0  0  0  0  0  0  0
    1.1161   -0.6227    2.3203 C   0  0  0  0  0  0  0  0  0  0  0  0
    0.6806   -1.0236    3.5719 C   0  0  0  0  0  0  0  0  0  0  0  0
   -0.6564   -1.0275    3.5523 N   0  0  0  0  0  0  0  0  0  0  0  0
   -1.0268   -0.6424    2.3314 C   0  0  0  0  0  0  0  0  0  0  0  0
  1  2  1  0
  2  3  2  0
  3  4  1  0
  4  5  2  0
  5  6  1  0
  6  7  2  0
  7  8  1  0
  8  9  1  0
  9 10  2  0
 10 11  1  0
 11 12  2  0
 12 13  1  0
 13 14  2  0
  8 15  1  0
 15 16  2  0
 16 17  1  0
 17 18  2  0
 18 19  1  0
 19 20  2  0
  8 21  1  0
 21 22  1  0
 22 23  2  0
 23 24  1  0
 24 25  2  0
  7  2  1  0
 14  9  1  0
 20 15  1  0
 25 21  1  0
M  END
>  <zinc_id>  (2) 
ZINC000003807804

>  <smiles>  (2) 
Clc1ccccc1C(c1ccccc1)(c1ccccc1)n1ccnc1

$$$$

     RDKit          3D

 19 21  0  0  0  0  0  0  0  0999 V2000
   -5.3955   -0.5549    0.7363 N   0  0  0  0  0  0  0  0  0  0  0  0
   -3.9952   -0.3772    0.4145 C   0  0  0  0  0  0  0  0  0  0  0  0
   -3.6139   -0.1550   -0.8540 N   0  0  0  0  0  0  0  0  0  0  0  0
   -2.3196    0.0076   -1.1397 C   0  0  0  0  0  0  0  0  0  0  0  0
   -1.8340    0.2460   -2.4523 N   0  0  0  0  0  0  0  0  0  0  0  0
   -1.4018   -0.0575   -0.1169 C   0  0  0  0  0  0  0  0  0  0  0  0
   -0.0666    0.1034   -0.3655 N   0  0  0  0  0  0  0  0  0  0  0  0
    0.8519    0.0449    0.6124 C   0  0  0  0  0  0  0  0  0  0  0  0
    2.2745    0.2197    0.3249 C   0  0  0  0  0  0  0  0  0  0  0  0
    3.2171   -0.6240    0.8765 C   0  0  0  0  0  0  0  0  0  0  0  0
    4.5676   -0.4674    0.6108 C   0  0  0  0  0  0  0  0  0  0  0  0
    5.0304    0.5342   -0.2134 C   0  0  0  0  0  0  0  0  0  0  0  0
    4.0927    1.3803   -0.7673 C   0  0  0  0  0  0  0  0  0  0  0  0
    2.7381    1.2242   -0.5016 C   0  0  0  0  0  0  0  0  0  0  0  0
    0.3819   -0.1866    1.8880 C   0  0  0  0  0  0  0  0  0  0  0  0
    1.3605   -0.2492    2.9324 N   0  0  0  0  0  0  0  0  0  0  0  0
   -0.9161   -0.3509    2.1830 N   0  0  0  0  0  0  0  0  0  0  0  0
   -1.8296   -0.2872    1.1728 C   0  0  0  0  0  0  0  0  0  0  0  0
   -3.1425   -0.4503    1.4504 N   0  0  0  0  0  0  0  0  0  0  0  0
  1  2  1  0
  2  3  2  0
  3  4  1  0
  4  5  1  0
  4  6  2  0
  6  7  1  0
  7  8  2  0
  8  9  1  0
  9 10  2  0
 10 11  1  0
 11 12  2  0
 12 13  1  0
 13 14  2  0
  8 15  1  0
 15 16  1  0
 15 17  2  0
 17 18  1  0
 18 19  2  0
 19  2  1  0
 18  6  1  0
 14  9  1  0
M  END
>  <zinc_id>  (3) 
ZINC000000120286

>  <smiles>  (3) 
Nc1nc(N)c2nc(-c3ccccc3)c(N)nc2n1

$$$$

     RDKit          2D

 55 62  0  0  0  0  0  0  0  0999 V2000
   -2.2856    3.6137    0.0000 C   0  0  0  0  0  0  0  0  0  0  0  0
   -3.6873    4.1480    0.0000 C   0  0  0  0  0  0  0  0  0  0  0  0
   -4.8508    3.2012    0.0000 O   0  0  0  0  0  0  0  0  0  0  0  0
   -6.2524    3.7354    0.0000 C   0  0  0  0  0  0  0  0  0  0  0  0
   -7.4159    2.7887    0.0000 O   0  0  0  0  0  0  0  0  0  0  0  0
   -7.1777    1.3077    0.0000 C   0  0  0  0  0  0  0  0  0  0  0  0
   -8.3412    0.3609    0.0000 C   0  0  0  0  0  0  0  0  0  0  0  0
   -9.7428    0.8951    0.0000 C   0  0  0  0  0  0  0  0  0  0  0  0
   -8.1030   -1.1200    0.0000 O   0  0  0  0  0  0  0  0  0  0  0  0
   -6.7013   -1.6542    0.0000 C   0  0  0  0  0  0  0  0  0  0  0  0
   -6.4632   -3.1352    0.0000 O   0  0  0  0  0  0  0  0  0  0  0  0
   -5.0615   -3.6694    0.0000 C   0  0  0  0  0  0  0  0  0  0  0  0
   -4.8233   -5.1504    0.0000 C   0  0  0  0  0  0  0  0  0  0  0  0
   -5.9868   -6.0972    0.0000 C   0  0  0  0  0  0  0  0  0  0  0  0
   -3.4217   -5.6846    0.0000 O   0  0  0  0  0  0  0  0  0  0  0  0
   -2.2582   -4.7379    0.0000 C   0  0  0  0  0  0  0  0  0  0  0  0
   -0.8566   -5.2721    0.0000 O   0  0  0  0  0  0  0  0  0  0  0  0
    0.3069   -4.3253    0.0000 C   0  0  0  0  0  0  0  0  0  0  0  0
    1.7085   -4.8595    0.0000 C   0  0  0  0  0  0  0  0  0  0  0  0
    2.8720   -3.9128    0.0000 C   0  0  0  0  0  0  0  0  0  0  0  0
    2.6338   -2.4318    0.0000 C   0  0  0  0  0  0  0  0  0  0  0  0
    4.0355   -2.9660    0.0000 C   0  0  0  0  0  0  0  0  0  0  0  0
    1.2322   -1.8976    0.0000 C   0  0  0  0  0  0  0  0  0  0  0  0
    0.9940   -0.4166    0.0000 C   0  0  0  0  0  0  0  0  0  0  0  0
    2.1575    0.5301    0.0000 C   0  0  0  0  0  0  0  0  0  0  0  0
    3.5591   -0.0041    0.0000 C   0  0  0  0  0  0  0  0  0  0  0  0
    3.7973   -1.4851    0.0000 C   0  0  0  0  0  0  0  0  0  0  0  0
    5.1989   -2.0193    0.0000 C   0  0  0  0  0  0  0  0  0  0  0  0
    6.3624   -1.0725    0.0000 C   0  0  0  0  0  0  0  0  0  0  0  0
    7.7641   -1.6067    0.0000 O   0  0  0  0  0  0  0  0  0  0  0  0
    6.1242    0.4084    0.0000 C   0  0  0  0  0  0  0  0  0  0  0  0
    7.5740    0.0237    0.0000 C   0  0  0  0  0  0  0  0  0  0  0  0
    7.0654    1.5764    0.0000 C   0  0  0  0  0  0  0  0  0  0  0  0
    8.5636    1.5015    0.0000 C   0  0  0  0  0  0  0  0  0  0  0  0
    9.5048    2.6694    0.0000 C   0  0  0  0  0  0  0  0  0  0  0  0
   10.9064    2.1352    0.0000 C   0  0  0  0  0  0  0  0  0  0  0  0
   12.1625    2.9552    0.0000 O   0  0  0  0  0  0  0  0  0  0  0  0
   10.8315    0.6371    0.0000 O   0  0  0  0  0  0  0  0  0  0  0  0
    9.3835    0.2454    0.0000 C   0  0  0  0  0  0  0  0  0  0  0  0
    6.2455    2.8325    0.0000 C   0  0  0  0  0  0  0  0  0  0  0  0
    4.7975    2.4408    0.0000 C   0  0  0  0  0  0  0  0  0  0  0  0
    4.7226    0.9427    0.0000 C   0  0  0  0  0  0  0  0  0  0  0  0
    3.3845    1.6205    0.0000 O   0  0  0  0  0  0  0  0  0  0  0  0
    0.0687   -2.8444    0.0000 C   0  0  0  0  0  0  0  0  0  0  0  0
   -2.4964   -3.2569    0.0000 C   0  0  0  0  0  0  0  0  0  0  0  0
   -3.8980   -2.7227    0.0000 C   0  0  0  0  0  0  0  0  0  0  0  0
   -4.1362   -1.2417    0.0000 O   0  0  0  0  0  0  0  0  0  0  0  0
   -5.5379   -0.7075    0.0000 C   0  0  0  0  0  0  0  0  0  0  0  0
   -5.7761    0.7735    0.0000 C   0  0  0  0  0  0  0  0  0  0  0  0
   -4.6126    1.7202    0.0000 O   0  0  0  0  0  0  0  0  0  0  0  0
   -6.4906    5.2164    0.0000 C   0  0  0  0  0  0  0  0  0  0  0  0
   -5.3271    6.1631    0.0000 C   0  0  0  0  0  0  0  0  0  0  0  0
   -5.5653    7.6441    0.0000 O   0  0  0  0  0  0  0  0  0  0  0  0
   -3.9255    5.6289    0.0000 C   0  0  0  0  0  0  0  0  0  0  0  0
   -2.7620    6.5757    0.0000 O   0  0  0  0  0  0  0  0  0  0  0  0
  2  1  1  1
  2  3  1  0
  3  4  1  0
  4  5  1  1
  6  5  1  1
  6  7  1  0
  7  8  1  6
  7  9  1  0
  9 10  1  0
 10 11  1  6
 12 11  1  1
 12 13  1  0
 13 14  1  6
 13 15  1  0
 15 16  1  0
 16 17  1  6
 18 17  1  6
 18 19  1  0
 19 20  1  0
 20 21  1  0
 21 22  1  6
 21 23  1  0
 23 24  1  1
 24 25  1  0
 26 25  1  1
 26 27  1  0
 27 28  1  6
 28 29  1  0
 29 30  1  6
 29 31  1  0
 31 32  1  6
 31 33  1  0
 33 34  1  6
 34 35  2  0
 35 36  1  0
 36 37  2  0
 36 38  1  0
 38 39  1  0
 33 40  1  0
 40 41  1  0
 41 42  1  0
 42 43  1  6
 23 44  1  0
 16 45  1  0
 45 46  1  0
 46 47  1  1
 10 48  1  0
 48 49  1  0
 49 50  1  1
  4 51  1  0
 51 52  1  0
 52 53  1  6
 52 54  1  0
 54 55  1  6
 54  2  1  0
 49  6  1  0
 46 12  1  0
 44 18  1  0
 27 21  1  0
 42 31  1  0
 42 26  1  0
 39 34  1  0
M  END
>  <zinc_id>  (4) 
ZINC000242548690

>  <smiles>  (4) 
C[C@H]1O[C@@H](O[C@H]2[C@@H](O)C[C@H](O[C@H]3[C@@H](O)C[C@H](O[C@H]4CC[C@]5(C)[C@H]6C[C@@H](O)[C@]7(C)[C@@H](C8=CC(=O)OC8)CC[C@]7(O)[C@@H]6CC[C@@H]5C4)O[C@@H]3C)O[C@@H]2C)C[C@H](O)[C@@H]1O

$$$$

     RDKit          3D

 11 12  0  0  0  0  0  0  0  0999 V2000
   -1.7068    1.6164   -1.3842 O   0  0  0  0  0  0  0  0  0  0  0  0
   -1.3443    0.7054   -0.4000 C   0  0  0  0  0  0  0  0  0  0  0  0
   -2.2851    0.2362    0.4907 C   0  0  0  0  0  0  0  0  0  0  0  0
   -1.8798   -0.6646    1.4479 C   0  0  0  0  0  0  0  0  0  0  0  0
   -0.5773   -1.0663    1.4930 C   0  0  0  0  0  0  0  0  0  0  0  0
    0.3953   -0.6178    0.6166 C   0  0  0  0  0  0  0  0  0  0  0  0
    1.7094   -1.0302    0.6706 C   0  0  0  0  0  0  0  0  0  0  0  0
    2.6251   -0.5439   -0.2323 C   0  0  0  0  0  0  0  0  0  0  0  0
    2.1882    0.3545   -1.1759 C   0  0  0  0  0  0  0  0  0  0  0  0
    0.9074    0.7244   -1.1896 N   0  0  0  0  0  0  0  0  0  0  0  0
   -0.0321    0.2860   -0.3368 C   0  0  0  0  0  0  0  0  0  0  0  0
  1  2  1  0
  2  3  2  0
  3  4  1  0
  4  5  2  0
  5  6  1  0
  6  7  2  0
  7  8  1  0
  8  9  2  0
  9 10  1  0
 10 11  2  0
 11  2  1  0
 11  6  1  0
M  END
>  <zinc_id>  (5) 
ZINC000000008492

>  <smiles>  (5) 
Oc1cccc2cccnc12

$$$$

     RDKit          3D

 27 30  0  0  0  0  0  0  0  0999 V2000
    0.9371    0.3541   -2.6825 C   0  0  0  0  0  0  0  0  0  0  0  0
    0.7627    0.6523   -1.9032 O   0  0  0  0  0  0  0  0  0  0  0  0
    0.4439    0.1325   -0.6517 C   0  0  0  0  0  0  0  0  0  0  0  0
    1.5394   -0.2365    0.1266 C   0  0  0  0  0  0  0  0  0  0  0  0
    2.8766   -0.0787   -0.3499 N   0  0  0  0  0  0  0  0  0  0  0  0
    3.5354   -1.1243   -1.0790 C   0  0  0  0  0  0  0  0  0  0  0  0
    5.0120   -1.1739   -0.8943 C   0  0  0  0  0  0  0  0  0  0  0  0
    5.5605    0.0283   -0.3509 N   0  0  0  0  0  0  0  0  0  0  0  0
    4.7843    1.1417   -1.1779 C   0  0  2  0  0  0  0  0  0  0  0  0
    5.5890    2.3795   -0.4150 C   0  0  0  0  0  0  0  0  0  0  0  0
    3.5322    1.1879   -0.0601 C   0  0  0  0  0  0  0  0  0  0  0  0
    1.3195   -0.7590    1.3696 C   0  0  0  0  0  0  0  0  0  0  0  0
    2.3798   -1.1334    2.1629 F   0  0  0  0  0  0  0  0  0  0  0  0
    0.0370   -0.9080    1.8219 C   0  0  0  0  0  0  0  0  0  0  0  0
   -1.0546   -0.5506    1.0737 C   0  0  0  0  0  0  0  0  0  0  0  0
   -2.2951   -0.7238    1.6131 C   0  0  0  0  0  0  0  0  0  0  0  0
   -2.4728   -1.2113    2.7647 O   0  0  0  0  0  0  0  0  0  0  0  0
   -3.3959   -0.3542    0.8768 C   0  0  0  0  0  0  0  0  0  0  0  0
   -4.7457   -0.5296    1.4318 C   0  0  0  0  0  0  0  0  0  0  0  0
   -5.7488   -0.1966    0.7701 O   0  0  0  0  0  0  0  0  0  0  0  0
   -4.9021   -1.0648    2.6894 O   0  0  0  0  0  0  0  0  0  0  0  0
   -3.1701    0.1690   -0.3615 C   0  0  0  0  0  0  0  0  0  0  0  0
   -1.9301    0.3352   -0.8852 N   0  0  0  0  0  0  0  0  0  0  0  0
   -1.8369    0.9386   -2.2069 C   0  0  0  0  0  0  0  0  0  0  0  0
   -2.8882    2.0425   -2.4542 C   0  0  0  0  0  0  0  0  0  0  0  0
   -3.0322    0.6961   -3.1472 C   0  0  0  0  0  0  0  0  0  0  0  0
   -0.8371   -0.0129   -0.2032 C   0  0  0  0  0  0  0  0  0  0  0  0
  1  2  1  0
  2  3  1  0
  3  4  2  0
  4  5  1  0
  5  6  1  0
  6  7  1  0
  7  8  1  0
  8  9  1  0
  9 10  1  1
  9 11  1  0
  4 12  1  0
 12 13  1  0
 12 14  2  0
 14 15  1  0
 15 16  1  0
 16 17  2  0
 16 18  1  0
 18 19  1  0
 19 20  2  0
 19 21  1  0
 18 22  2  0
 22 23  1  0
 23 24  1  0
 24 25  1  0
 25 26  1  0
 23 27  1  0
 27  3  1  0
 11  5  1  0
 27 15  2  0
 26 24  1  0
M  END
>  <zinc_id>  (6) 
ZINC000003607120

>  <smiles>  (6) 
COc1c(N2CCN[C@H](C)C2)c(F)cc2c(=O)c(C(=O)O)cn(C3CC3)c12

$$$$

     RDKit          3D

 43 49  0  0  0  0  0  0  0  0999 V2000
   -0.7651   -2.7047   -2.5624 C   0  0  0  0  0  0  0  0  0  0  0  0
   -0.5563   -2.8037   -1.3593 C   0  0  0  0  0  0  0  0  0  0  0  0
   -1.0158   -1.5775   -0.6192 C   0  0  0  0  0  0  0  0  0  0  0  0
   -2.3769   -1.4327   -0.4180 C   0  0  0  0  0  0  0  0  0  0  0  0
   -2.8018   -0.3167    0.2562 C   0  0  0  0  0  0  0  0  0  0  0  0
   -1.9071    0.6048    0.7040 N   0  0  0  0  0  0  0  0  0  0  0  0
   -0.5818    0.4761    0.5151 C   0  0  0  0  0  0  0  0  0  0  0  0
    0.3353    1.4036    0.9674 C   0  0  0  0  0  0  0  0  0  0  0  0
    1.7013    1.2354    0.7554 C   0  0  0  0  0  0  0  0  0  0  0  0
    2.1440    0.1255    0.0833 C   0  0  0  0  0  0  0  0  0  0  0  0
    3.4866   -0.0706   -0.1418 O   0  0  0  0  0  0  0  0  0  0  0  0
    4.2001    0.4231   -1.2231 C   0  0  0  0  0  0  0  0  0  0  0  0
    3.5518    1.1063   -2.0575 O   0  0  0  0  0  0  0  0  0  0  0  0
    5.5853    0.1859   -1.4036 N   0  0  0  0  0  0  0  0  0  0  0  0
    6.2525    0.7452   -2.5614 C   0  0  0  0  0  0  0  0  0  0  0  0
    7.6042    1.2488   -2.1004 C   0  0  0  0  0  0  0  0  0  0  0  0
    8.4914    0.1229   -1.6372 C   0  0  0  0  0  0  0  0  0  0  0  0
    9.2932    0.5235   -0.4743 N   0  0  0  0  0  0  0  0  0  0  0  0
    8.4200    0.8359    0.6267 C   0  0  0  0  0  0  0  0  0  0  0  0
    9.1138    0.9902    1.9402 C   0  0  0  0  0  0  0  0  0  0  0  0
   10.2321    0.0247    2.1790 C   0  0  0  0  0  0  0  0  0  0  0  0
   11.1335   -0.0843    0.9492 C   0  0  0  0  0  0  0  0  0  0  0  0
   10.2438   -0.5282   -0.1870 C   0  0  0  0  0  0  0  0  0  0  0  0
    7.6197   -1.0808   -1.2600 C   0  0  0  0  0  0  0  0  0  0  0  0
    6.3833   -0.5937   -0.4913 C   0  0  0  0  0  0  0  0  0  0  0  0
    1.2390   -0.7882   -0.3623 C   0  0  0  0  0  0  0  0  0  0  0  0
   -0.1306   -0.6359   -0.1588 C   0  0  0  0  0  0  0  0  0  0  0  0
   -4.2588   -0.3951    0.3396 C   0  0  0  0  0  0  0  0  0  0  0  0
   -5.1524    0.5054    0.9322 C   0  0  0  0  0  0  0  0  0  0  0  0
   -6.5017    0.2449    0.9026 C   0  0  0  0  0  0  0  0  0  0  0  0
   -6.8859   -0.9192    0.2722 C   0  0  0  0  0  0  0  0  0  0  0  0
   -6.0120   -1.7895   -0.3015 C   0  0  0  0  0  0  0  0  0  0  0  0
   -6.3751   -2.8575   -0.8785 O   0  0  0  0  0  0  0  0  0  0  0  0
   -4.6696   -1.5100   -0.2603 N   0  0  0  0  0  0  0  0  0  0  0  0
   -3.5446   -2.2467   -0.7812 C   0  0  0  0  0  0  0  0  0  0  0  0
   -8.3582   -1.2146    0.2317 C   0  0  0  0  0  0  0  0  0  0  0  0
   -8.9675    0.0339   -0.1381 O   0  0  0  0  0  0  0  0  0  0  0  0
   -8.6746    1.1968    0.5799 C   0  0  0  0  0  0  0  0  0  0  0  0
   -9.3437    2.2585    0.4677 O   0  0  0  0  0  0  0  0  0  0  0  0
   -7.5185    1.1551    1.5113 C   0  0  1  0  0  0  0  0  0  0  0  0
   -7.9232    0.6271    2.7389 O   0  0  0  0  0  0  0  0  0  0  0  0
   -6.9430    2.5273    1.7491 C   0  0  0  0  0  0  0  0  0  0  0  0
   -5.7666    2.5033    2.6752 C   0  0  0  0  0  0  0  0  0  0  0  0
  1  2  1  0
  2  3  1  0
  3  4  2  0
  4  5  1  0
  5  6  2  0
  6  7  1  0
  7  8  2  0
  8  9  1  0
  9 10  2  0
 10 11  1  0
 11 12  1  0
 12 13  2  0
 12 14  1  0
 14 15  1  0
 15 16  1  0
 16 17  1  0
 17 18  1  0
 18 19  1  0
 19 20  1  0
 20 21  1  0
 21 22  1  0
 22 23  1  0
 17 24  1  0
 24 25  1  0
 10 26  1  0
 26 27  2  0
  5 28  1  0
 28 29  2  0
 29 30  1  0
 30 31  2  0
 31 32  1  0
 32 33  2  0
 32 34  1  0
 34 35  1  0
 31 36  1  0
 36 37  1  0
 37 38  1  0
 38 39  2  0
 38 40  1  0
 40 41  1  1
 40 42  1  0
 42 43  1  0
 27  3  1  0
 34 28  1  0
 35  4  1  0
 27  7  1  0
 40 30  1  0
 25 14  1  0
 23 18  1  0
M  END
>  <zinc_id>  (7) 
ZINC000001612996

>  <smiles>  (7) 
CCc1c2c(nc3ccc(OC(=O)N4CCC(N5CCCCC5)CC4)cc13)-c1cc3c(c(=O)n1C2)COC(=O)[C@]3(O)CC

$$$$

     RDKit          3D

 39 43  0  0  0  0  0  0  0  0999 V2000
    5.2243   -2.7391   -2.6460 C   0  0  0  0  0  0  0  0  0  0  0  0
    4.9682   -2.4420   -2.2896 O   0  0  0  0  0  0  0  0  0  0  0  0
    5.1429   -1.8318   -1.0411 C   0  0  0  0  0  0  0  0  0  0  0  0
    6.3391   -1.9389   -0.3560 C   0  0  0  0  0  0  0  0  0  0  0  0
    6.4732   -1.3241    0.8711 C   0  0  0  0  0  0  0  0  0  0  0  0
    5.4486   -0.6030    1.4391 C   0  0  0  0  0  0  0  0  0  0  0  0
    4.2619   -0.5077    0.7391 C   0  0  0  0  0  0  0  0  0  0  0  0
    4.1131   -1.1218   -0.4975 C   0  0  0  0  0  0  0  0  0  0  0  0
    2.8456   -0.9906   -1.1910 C   0  0  0  0  0  0  0  0  0  0  0  0
    2.6055   -1.5130   -2.3267 O   0  0  0  0  0  0  0  0  0  0  0  0
    1.7452   -0.2244   -0.5963 C   0  0  0  0  0  0  0  0  0  0  0  0
    0.5015   -0.0798   -1.2481 C   0  0  0  0  0  0  0  0  0  0  0  0
    0.4433   -0.7234   -2.4722 O   0  0  0  0  0  0  0  0  0  0  0  0
   -0.5032    0.6370   -0.6736 C   0  0  0  0  0  0  0  0  0  0  0  0
   -0.3125    1.2063    0.5125 C   0  0  0  0  0  0  0  0  0  0  0  0
    0.9204    1.0811    1.1916 C   0  0  0  0  0  0  0  0  0  0  0  0
    1.1230    1.6699    2.4216 O   0  0  0  0  0  0  0  0  0  0  0  0
    1.9260    0.3631    0.6152 C   0  0  0  0  0  0  0  0  0  0  0  0
    3.1928    0.2520    1.3451 C   0  0  0  0  0  0  0  0  0  0  0  0
    3.3242    0.8082    2.4626 O   0  0  0  0  0  0  0  0  0  0  0  0
   -1.2998    2.0092    1.2795 C   0  0  0  0  0  0  0  0  0  0  0  0
   -2.1234    2.6295    0.1668 C   0  0  1  0  0  0  0  0  0  0  0  0
   -3.2219    3.1837    0.8886 O   0  0  0  0  0  0  0  0  0  0  0  0
   -1.4262    3.7262   -0.4088 C   0  0  0  0  0  0  0  0  0  0  0  0
   -0.4006    3.6426   -1.1230 O   0  0  0  0  0  0  0  0  0  0  0  0
   -1.8289    5.1396   -0.2364 C   0  0  0  0  0  0  0  0  0  0  0  0
   -2.9288    5.3981    0.5170 O   0  0  0  0  0  0  0  0  0  0  0  0
   -2.7489    1.5673   -0.5419 C   0  0  0  0  0  0  0  0  0  0  0  0
   -1.8184    0.7157   -1.5226 C   0  0  2  0  0  0  0  0  0  0  0  0
   -2.4446   -0.5857   -1.2984 O   0  0  0  0  0  0  0  0  0  0  0  0
   -2.7832   -0.8440    0.1154 C   0  0  1  0  0  0  0  0  0  0  0  0
   -4.2955   -0.1888    0.0772 C   0  0  0  0  0  0  0  0  0  0  0  0
   -5.2338   -1.0639    1.0388 C   0  0  2  0  0  0  0  0  0  0  0  0
   -4.2188   -1.7992    1.9286 N   0  0  0  0  0  0  0  0  0  0  0  0
   -5.6837   -2.2481   -0.0878 C   0  0  2  0  0  0  0  0  0  0  0  0
   -5.2142   -3.4812    0.5722 O   0  0  0  0  0  0  0  0  0  0  0  0
   -4.3850   -1.9938   -1.1740 C   0  0  2  0  0  0  0  0  0  0  0  0
   -4.4450   -3.5077   -1.7644 C   0  0  0  0  0  0  0  0  0  0  0  0
   -3.2825   -2.2778   -0.2263 O   0  0  0  0  0  0  0  0  0  0  0  0
  1  2  1  0
  2  3  1  0
  3  4  2  0
  4  5  1  0
  5  6  2  0
  6  7  1  0
  7  8  2  0
  8  9  1  0
  9 10  2  0
  9 11  1  0
 11 12  2  0
 12 13  1  0
 12 14  1  0
 14 15  2  0
 15 16  1  0
 16 17  1  0
 16 18  2  0
 18 19  1  0
 19 20  2  0
 15 21  1  0
 21 22  1  0
 22 23  1  1
 22 24  1  0
 24 25  2  0
 24 26  1  0
 26 27  1  0
 22 28  1  0
 28 29  1  0
 29 30  1  1
 31 30  1  6
 31 32  1  0
 32 33  1  0
 33 34  1  1
 33 35  1  0
 35 36  1  1
 35 37  1  0
 37 38  1  6
 37 39  1  0
  8  3  1  0
 18 11  1  0
 39 31  1  0
 19  7  1  0
 29 14  1  0
M  END
>  <zinc_id>  (8) 
ZINC000003918087

>  <smiles>  (8) 
COc1cccc2c1C(=O)c1c(O)c3c(c(O)c1C2=O)C[C@@](O)(C(=O)CO)C[C@@H]3O[C@H]1C[C@H](N)[C@H](O)[C@H](C)O1

$$$$

     RDKit          3D

 19 19  0  0  0  0  0  0  0  0999 V2000
   -4.9562    1.6808    0.6402 N   0  0  0  0  0  0  0  0  0  0  0  0
   -3.6073    1.4900   -0.1787 C   0  0  1  0  0  0  0  0  0  0  0  0
   -2.8378    0.8728    1.1146 C   0  0  0  0  0  0  0  0  0  0  0  0
   -1.4531    0.5646    0.7010 C   0  0  0  0  0  0  0  0  0  0  0  0
   -0.4363    1.5001    0.7312 C   0  0  0  0  0  0  0  0  0  0  0  0
    0.8379    1.1402    0.3497 C   0  0  0  0  0  0  0  0  0  0  0  0
    1.1444   -0.1388   -0.0687 C   0  0  0  0  0  0  0  0  0  0  0  0
    2.4516   -0.5221   -0.4713 N   0  0  0  0  0  0  0  0  0  0  0  0
    3.5792    0.3313   -0.5167 C   0  0  0  0  0  0  0  0  0  0  0  0
    3.3954    1.7466   -0.1234 C   0  0  0  0  0  0  0  0  0  0  0  0
    4.9628    2.5788   -0.2796 Cl  0  0  0  0  0  0  0  0  0  0  0  0
    2.6717   -1.9212   -0.8791 C   0  0  0  0  0  0  0  0  0  0  0  0
    3.5433   -2.5530    0.1667 C   0  0  0  0  0  0  0  0  0  0  0  0
    3.8723   -4.2411   -0.2239 Cl  0  0  0  0  0  0  0  0  0  0  0  0
    0.1212   -1.0424   -0.0883 C   0  0  0  0  0  0  0  0  0  0  0  0
   -1.1363   -0.6962    0.2858 C   0  0  0  0  0  0  0  0  0  0  0  0
   -4.0104    0.0973   -0.8099 C   0  0  0  0  0  0  0  0  0  0  0  0
   -4.9528   -0.5686   -0.4144 O   0  0  0  0  0  0  0  0  0  0  0  0
   -3.1898   -0.3194   -1.8781 O   0  0  0  0  0  0  0  0  0  0  0  0
  2  1  1  1
  2  3  1  0
  3  4  1  0
  4  5  2  0
  5  6  1  0
  6  7  2  0
  7  8  1  0
  8  9  1  0
  9 10  1  0
 10 11  1  0
  8 12  1  0
 12 13  1  0
 13 14  1  0
  7 15  1  0
 15 16  2  0
  2 17  1  0
 17 18  2  0
 17 19  1  0
 16  4  1  0
M  END
>  <zinc_id>  (9) 
ZINC000000001673

>  <smiles>  (9) 
N[C@@H](Cc1ccc(N(CCCl)CCCl)cc1)C(=O)O

$$$$

     RDKit          3D

  9  9  0  0  0  0  0  0  0  0999 V2000
   -1.8882    1.5881    0.2270 N   0  0  0  0  0  0  0  0  0  0  0  0
   -0.7827    0.6879    0.0979 C   0  0  0  0  0  0  0  0  0  0  0  0
    0.4972    1.1152    0.1391 N   0  0  0  0  0  0  0  0  0  0  0  0
    1.5388    0.2679    0.0176 C   0  0  0  0  0  0  0  0  0  0  0  0
    2.7312    0.6482    0.0536 O   0  0  0  0  0  0  0  0  0  0  0  0
    1.2732   -1.0459   -0.1498 N   0  0  0  0  0  0  0  0  0  0  0  0
    0.0156   -1.5350   -0.1993 C   0  0  0  0  0  0  0  0  0  0  0  0
   -1.0477   -0.6581   -0.0737 C   0  0  0  0  0  0  0  0  0  0  0  0
   -2.3374   -1.0683   -0.1125 F   0  0  0  0  0  0  0  0  0  0  0  0
  1  2  1  0
  2  3  2  0
  3  4  1  0
  4  5  2  0
  4  6  1  0
  6  7  1  0
  7  8  2  0
  8  9  1  0
  8  2  1  0
M  END
>  <zinc_id>  (10) 
ZINC000000896546

>  <smiles>  (10) 
Nc1nc(=O)[nH]cc1F

$$$$

     RDKit          3D

 23 25  0  0  0  0  0  0  0  0999 V2000
    0.2304    2.0091    0.9798 C   0  0  0  0  0  0  0  0  0  0  0  0
   -0.7417    1.1413    0.4031 N   0  0  0  0  0  0  0  0  0  0  0  0
   -0.2909   -0.0430   -0.2326 C   0  0  0  0  0  0  0  0  0  0  0  0
    1.1660   -0.2844   -0.2458 C   0  0  0  0  0  0  0  0  0  0  0  0
    1.6427   -1.3280   -0.7992 O   0  0  0  0  0  0  0  0  0  0  0  0
    2.0836    0.6077    0.3401 N   0  0  0  0  0  0  0  0  0  0  0  0
    3.4694    0.3073    0.2872 C   0  0  0  0  0  0  0  0  0  0  0  0
    3.9261   -0.8372   -0.3254 C   0  0  0  0  0  0  0  0  0  0  0  0
    5.2539   -1.1791   -0.4068 C   0  0  0  0  0  0  0  0  0  0  0  0
    6.1760   -0.3291    0.1556 C   0  0  0  0  0  0  0  0  0  0  0  0
    5.7048    0.8112    0.7645 C   0  0  0  0  0  0  0  0  0  0  0  0
    4.4038    1.1230    0.8311 N   0  0  0  0  0  0  0  0  0  0  0  0
   -1.0577   -0.9242   -0.7995 C   0  0  0  0  0  0  0  0  0  0  0  0
   -0.4719   -2.0583   -1.3952 O   0  0  0  0  0  0  0  0  0  0  0  0
   -2.5059   -0.8403   -0.8752 C   0  0  0  0  0  0  0  0  0  0  0  0
   -3.2185   -1.8491   -1.5101 C   0  0  0  0  0  0  0  0  0  0  0  0
   -4.5884   -1.8494   -1.6271 C   0  0  0  0  0  0  0  0  0  0  0  0
   -5.3164   -0.8079   -1.0963 C   0  0  0  0  0  0  0  0  0  0  0  0
   -4.5995    0.1872   -0.4688 C   0  0  0  0  0  0  0  0  0  0  0  0
   -3.2495    0.1879   -0.3533 C   0  0  0  0  0  0  0  0  0  0  0  0
   -2.4451    1.4902    0.4566 S   0  0  0  0  0  0  0  0  0  0  0  0
   -2.9177    1.6923    1.8562 O   0  0  0  0  0  0  0  0  0  0  0  0
   -2.6536    2.7729   -0.3013 O   0  0  0  0  0  0  0  0  0  0  0  0
  1  2  1  0
  2  3  1  0
  3  4  1  0
  4  5  2  0
  4  6  1  0
  6  7  1  0
  7  8  2  0
  8  9  1  0
  9 10  2  0
 10 11  1  0
 11 12  2  0
  3 13  2  0
 13 14  1  0
 13 15  1  0
 15 16  2  0
 16 17  1  0
 17 18  2  0
 18 19  1  0
 19 20  2  0
 20 21  1  0
 21 22  2  0
 21 23  2  0
 21  2  1  0
 12  7  1  0
 20 15  1  0
M  END
>  <zinc_id>  (11) 
ZINC000051133897

>  <smiles>  (11) 
CN1C(C(=O)Nc2ccccn2)=C(O)c2ccccc2S1(=O)=O

$$$$

     RDKit          3D

 10 11  0  0  0  0  0  0  0  0999 V2000
   -1.7436    2.1855   -0.1393 S   0  0  0  0  0  0  0  0  0  0  0  0
   -1.1534    0.6800   -0.0647 C   0  0  0  0  0  0  0  0  0  0  0  0
   -1.9708   -0.3615   -0.0560 N   0  0  0  0  0  0  0  0  0  0  0  0
   -1.4919   -1.6113    0.0055 C   0  0  0  0  0  0  0  0  0  0  0  0
   -0.1718   -1.8175    0.0591 N   0  0  0  0  0  0  0  0  0  0  0  0
    0.6905   -0.7792    0.0521 C   0  0  0  0  0  0  0  0  0  0  0  0
    2.0179   -0.6985    0.0956 N   0  0  0  0  0  0  0  0  0  0  0  0
    2.3596    0.5863    0.0616 C   0  0  0  0  0  0  0  0  0  0  0  0
    1.2550    1.3184   -0.0033 N   0  0  0  0  0  0  0  0  0  0  0  0
    0.2084    0.4978   -0.0105 C   0  0  0  0  0  0  0  0  0  0  0  0
  1  2  2  0
  2  3  1  0
  3  4  1  0
  4  5  2  0
  5  6  1  0
  6  7  1  0
  7  8  2  0
  8  9  1  0
  9 10  1  0
 10  2  1  0
 10  6  2  0
M  END
>  <zinc_id>  (12) 
ZINC000004658290

>  <smiles>  (12) 
S=c1[nH]cnc2nc[nH]c12

$$$$

     RDKit          3D

 33 35  0  0  0  0  0  0  0  0999 V2000
   -1.8168    1.1970    2.8971 C   0  0  0  0  0  0  0  0  0  0  0  0
   -1.4211    1.4047    1.5652 N   0  0  0  0  0  0  0  0  0  0  0  0
   -2.3310    2.2047    0.7660 C   0  0  0  0  0  0  0  0  0  0  0  0
   -3.6543    1.5973    0.6432 C   0  0  0  0  0  0  0  0  0  0  0  0
   -4.5778    1.7831    1.6414 C   0  0  0  0  0  0  0  0  0  0  0  0
   -5.7955    1.2064    1.4909 N   0  0  0  0  0  0  0  0  0  0  0  0
   -6.1120    0.4674    0.4000 C   0  0  0  0  0  0  0  0  0  0  0  0
   -7.3215   -0.1029    0.2534 N   0  0  0  0  0  0  0  0  0  0  0  0
   -7.5674   -0.8232   -0.8573 C   0  0  0  0  0  0  0  0  0  0  0  0
   -8.8869   -1.4016   -0.9420 N   0  0  0  0  0  0  0  0  0  0  0  0
   -6.6599   -0.9979   -1.8251 N   0  0  0  0  0  0  0  0  0  0  0  0
   -5.4453   -0.4528   -1.7266 C   0  0  0  0  0  0  0  0  0  0  0  0
   -4.4499   -0.6025   -2.7159 N   0  0  0  0  0  0  0  0  0  0  0  0
   -5.1623    0.2940   -0.5952 C   0  0  0  0  0  0  0  0  0  0  0  0
   -3.9478    0.8659   -0.4510 N   0  0  0  0  0  0  0  0  0  0  0  0
   -0.2240    0.8920    0.9859 C   0  0  0  0  0  0  0  0  0  0  0  0
    0.6823    0.1475    1.7116 C   0  0  0  0  0  0  0  0  0  0  0  0
    1.8403   -0.3558    1.1509 C   0  0  0  0  0  0  0  0  0  0  0  0
    2.1669   -0.1488   -0.1656 C   0  0  0  0  0  0  0  0  0  0  0  0
    3.4000   -0.6835   -0.7713 C   0  0  0  0  0  0  0  0  0  0  0  0
    3.5408   -0.5396   -1.9994 O   0  0  0  0  0  0  0  0  0  0  0  0
    4.4073   -1.3325   -0.0691 N   0  0  0  0  0  0  0  0  0  0  0  0
    5.6095   -1.8103   -0.9266 C   0  0  1  0  0  0  0  0  0  0  0  0
    6.6879   -0.8016   -0.2241 C   0  0  0  0  0  0  0  0  0  0  0  0
    6.0575    0.5362   -0.5524 C   0  0  0  0  0  0  0  0  0  0  0  0
    6.8687    1.6574   -0.0115 C   0  0  0  0  0  0  0  0  0  0  0  0
    7.9207    1.3997    0.6209 O   0  0  0  0  0  0  0  0  0  0  0  0
    6.4239    2.9529   -0.2309 O   0  0  0  0  0  0  0  0  0  0  0  0
    5.9796   -3.0581   -0.0533 C   0  0  0  0  0  0  0  0  0  0  0  0
    5.3687   -3.3642    0.9650 O   0  0  0  0  0  0  0  0  0  0  0  0
    7.0398   -3.8176   -0.4789 O   0  0  0  0  0  0  0  0  0  0  0  0
    1.2691    0.5912   -0.8910 C   0  0  0  0  0  0  0  0  0  0  0  0
    0.1107    1.0957   -0.3341 C   0  0  0  0  0  0  0  0  0  0  0  0
  1  2  1  0
  2  3  1  0
  3  4  1  0
  4  5  2  0
  5  6  1  0
  6  7  2  0
  7  8  1  0
  8  9  2  0
  9 10  1  0
  9 11  1  0
 11 12  2  0
 12 13  1  0
 12 14  1  0
 14 15  2  0
  2 16  1  0
 16 17  2  0
 17 18  1  0
 18 19  2  0
 19 20  1  0
 20 21  2  0
 20 22  1  0
 22 23  1  0
 23 24  1  1
 24 25  1  0
 25 26  1  0
 26 27  2  0
 26 28  1  0
 23 29  1  0
 29 30  2  0
 29 31  1  0
 19 32  1  0
 32 33  2  0
 15  4  1  0
 33 16  1  0
 14  7  1  0
M  END
>  <zinc_id>  (13) 
ZINC000001529323

>  <smiles>  (13) 
CN(Cc1cnc2nc(N)nc(N)c2n1)c1ccc(C(=O)N[C@@H](CCC(=O)O)C(=O)O)cc1

$$$$

     RDKit          3D

 28 31  0  0  0  0  0  0  0  0999 V2000
   -5.5307   -0.4619   -3.3644 C   0  0  0  0  0  0  0  0  0  0  0  0
   -5.9550   -0.4784   -2.0110 O   0  0  0  0  0  0  0  0  0  0  0  0
   -5.0087   -0.3680   -0.9917 C   0  0  0  0  0  0  0  0  0  0  0  0
   -3.6602   -0.2418   -1.2502 C   0  0  0  0  0  0  0  0  0  0  0  0
   -2.7301   -0.1330   -0.2256 C   0  0  0  0  0  0  0  0  0  0  0  0
   -1.4179   -0.0099   -0.4681 N   0  0  0  0  0  0  0  0  0  0  0  0
   -0.4757    0.0989    0.4776 C   0  0  0  0  0  0  0  0  0  0  0  0
    0.9079    0.2269    0.1782 N   0  0  0  0  0  0  0  0  0  0  0  0
    1.2734    0.2283   -1.2406 C   0  0  0  0  0  0  0  0  0  0  0  0
    2.4800   -0.6813   -1.3523 C   0  0  0  0  0  0  0  0  0  0  0  0
    3.5499   -0.0774   -0.5876 N   0  0  0  0  0  0  0  0  0  0  0  0
    4.8848   -0.2724   -1.0331 C   0  0  0  0  0  0  0  0  0  0  0  0
    5.1554   -0.9496   -2.0644 O   0  0  0  0  0  0  0  0  0  0  0  0
    5.9993    0.3115   -0.3034 C   0  0  0  0  0  0  0  0  0  0  0  0
    7.3362    0.2265   -0.5914 C   0  0  0  0  0  0  0  0  0  0  0  0
    7.9950    0.9383    0.3833 C   0  0  0  0  0  0  0  0  0  0  0  0
    7.0469    1.4293    1.2255 C   0  0  0  0  0  0  0  0  0  0  0  0
    5.8873    1.0406    0.7903 O   0  0  0  0  0  0  0  0  0  0  0  0
    3.2548    0.7006    0.5945 C   0  0  0  0  0  0  0  0  0  0  0  0
    1.9204    0.3507    1.2053 C   0  0  0  0  0  0  0  0  0  0  0  0
   -0.9083    0.0801    1.7603 N   0  0  0  0  0  0  0  0  0  0  0  0
   -2.2083   -0.0403    2.0845 C   0  0  0  0  0  0  0  0  0  0  0  0
   -2.6806   -0.0619    3.4245 N   0  0  0  0  0  0  0  0  0  0  0  0
   -3.1588   -0.1507    1.0884 C   0  0  0  0  0  0  0  0  0  0  0  0
   -4.5025   -0.2763    1.3565 C   0  0  0  0  0  0  0  0  0  0  0  0
   -5.4136   -0.3835    0.3255 C   0  0  0  0  0  0  0  0  0  0  0  0
   -6.7873   -0.5120    0.5941 O   0  0  0  0  0  0  0  0  0  0  0  0
   -7.2536   -0.5333    1.9337 C   0  0  0  0  0  0  0  0  0  0  0  0
  1  2  1  0
  2  3  1  0
  3  4  2  0
  4  5  1  0
  5  6  2  0
  6  7  1  0
  7  8  1  0
  8  9  1  0
  9 10  1  0
 10 11  1  0
 11 12  1  0
 12 13  2  0
 12 14  1  0
 14 15  2  0
 15 16  1  0
 16 17  2  0
 17 18  1  0
 11 19  1  0
 19 20  1  0
  7 21  2  0
 21 22  1  0
 22 23  1  0
 22 24  2  0
 24 25  1  0
 25 26  2  0
 26 27  1  0
 27 28  1  0
 26  3  1  0
 24  5  1  0
 20  8  1  0
 18 14  1  0
M  END
>  <zinc_id>  (14) 
ZINC000095616601

>  <smiles>  (14) 
COc1cc2nc(N3CCN(C(=O)c4ccco4)CC3)nc(N)c2cc1OC

$$$$

     RDKit          3D

 25 27  0  0  0  0  0  0  0  0999 V2000
    0.7664    4.3196   -0.2481 C   0  0  0  0  0  0  0  0  0  0  0  0
    0.0373    3.0481   -0.1024 N   0  0  0  0  0  0  0  0  0  0  0  0
   -1.1896    2.9923    0.4698 C   0  0  0  0  0  0  0  0  0  0  0  0
   -1.7046    4.0687    0.8639 O   0  0  0  0  0  0  0  0  0  0  0  0
   -1.8180    1.7691    0.6025 C   0  0  0  0  0  0  0  0  0  0  0  0
   -1.1993    0.6258    0.1607 C   0  0  0  0  0  0  0  0  0  0  0  0
   -1.9813   -0.5719    0.2026 N   0  0  0  0  0  0  0  0  0  0  0  0
   -1.7466   -1.5016    1.2502 C   0  0  0  0  0  0  0  0  0  0  0  0
   -3.0402   -1.8305    1.9217 C   0  0  0  0  0  0  0  0  0  0  0  0
   -4.1611   -2.0127    0.9225 C   0  0  0  0  0  0  0  0  0  0  0  0
   -3.3910   -2.3675   -0.5189 C   0  0  1  0  0  0  0  0  0  0  0  0
   -4.7983   -2.2410   -1.3179 N   0  0  0  0  0  0  0  0  0  0  0  0
   -3.0146   -0.7912   -0.8065 C   0  0  0  0  0  0  0  0  0  0  0  0
    0.0175    0.6760   -0.4026 N   0  0  0  0  0  0  0  0  0  0  0  0
    0.6710   -0.5638   -0.6898 C   0  0  0  0  0  0  0  0  0  0  0  0
    1.8209   -0.9883    0.0399 C   0  0  0  0  0  0  0  0  0  0  0  0
    1.8270   -1.2003    1.3858 C   0  0  0  0  0  0  0  0  0  0  0  0
    2.9097   -1.4915    2.1618 C   0  0  0  0  0  0  0  0  0  0  0  0
    4.1291   -1.5697    1.4706 C   0  0  0  0  0  0  0  0  0  0  0  0
    4.1827   -1.3674    0.1223 C   0  0  0  0  0  0  0  0  0  0  0  0
    3.0561   -1.0793   -0.6148 C   0  0  0  0  0  0  0  0  0  0  0  0
    3.1287   -0.9463   -2.0699 C   0  0  0  0  0  0  0  0  0  0  0  0
    3.1630   -0.8441   -3.2249 N   0  0  0  0  0  0  0  0  0  0  0  0
    0.5980    1.8933   -0.5217 C   0  0  0  0  0  0  0  0  0  0  0  0
    1.7372    1.9740   -1.0567 O   0  0  0  0  0  0  0  0  0  0  0  0
  1  2  1  0
  2  3  1  0
  3  4  2  0
  3  5  1  0
  5  6  2  0
  6  7  1  0
  7  8  1  0
  8  9  1  0
  9 10  1  0
 10 11  1  0
 11 12  1  6
 11 13  1  0
  6 14  1  0
 14 15  1  0
 15 16  1  0
 16 17  2  0
 17 18  1  0
 18 19  2  0
 19 20  1  0
 20 21  2  0
 21 22  1  0
 22 23  3  0
 14 24  1  0
 24 25  2  0
 24  2  1  0
 13  7  1  0
 21 16  1  0
M  END
>  <zinc_id>  (15) 
ZINC000014961096

>  <smiles>  (15) 
Cn1c(=O)cc(N2CCC[C@@H](N)C2)n(Cc2ccccc2C#N)c1=O

$$$$

     RDKit          3D

 21 21  0  0  0  0  0  0  0  0999 V2000
    7.6964    0.4372    1.1164 C   0  0  0  0  0  0  0  0  0  0  0  0
    6.9973    0.4583    0.0832 C   0  0  0  0  0  0  0  0  0  0  0  0
    5.5468    0.0418    0.1531 C   0  0  0  0  0  0  0  0  0  0  0  0
    4.9842    0.1686   -1.2067 C   0  0  0  0  0  0  0  0  0  0  0  0
    3.4123   -0.2721   -1.1822 C   0  0  1  0  0  0  0  0  0  0  0  0
    3.7139   -1.7968   -0.6463 C   0  0  0  0  0  0  0  0  0  0  0  0
    2.3066   -2.3530   -0.5701 C   0  0  0  0  0  0  0  0  0  0  0  0
    3.1159    0.3193    0.3172 C   0  0  0  0  0  0  0  0  0  0  0  0
    1.7475    0.0383    0.5657 O   0  0  0  0  0  0  0  0  0  0  0  0
    0.8337    0.6059   -0.3230 C   0  0  0  0  0  0  0  0  0  0  0  0
    1.1634    1.3181   -1.2829 O   0  0  0  0  0  0  0  0  0  0  0  0
   -0.5700    0.3361   -0.0937 C   0  0  0  0  0  0  0  0  0  0  0  0
   -1.4990    0.8346   -0.8876 C   0  0  0  0  0  0  0  0  0  0  0  0
   -2.8819    0.5235   -0.5985 C   0  0  0  0  0  0  0  0  0  0  0  0
   -3.8772    1.0200   -1.3964 C   0  0  0  0  0  0  0  0  0  0  0  0
   -5.2135    0.7188   -1.1163 C   0  0  0  0  0  0  0  0  0  0  0  0
   -5.5320   -0.0723   -0.0450 C   0  0  0  0  0  0  0  0  0  0  0  0
   -6.8792   -0.3388    0.1855 O   0  0  0  0  0  0  0  0  0  0  0  0
   -7.2906   -1.1494    1.2742 C   0  0  0  0  0  0  0  0  0  0  0  0
   -4.5480   -0.5745    0.7596 C   0  0  0  0  0  0  0  0  0  0  0  0
   -3.2263   -0.2637    0.4645 C   0  0  0  0  0  0  0  0  0  0  0  0
  1  2  1  0
  2  3  1  0
  3  4  1  0
  5  4  1  1
  5  6  1  0
  6  7  1  0
  5  8  1  0
  8  9  1  0
  9 10  1  0
 10 11  2  0
 10 12  1  0
 12 13  2  0
 13 14  1  0
 14 15  2  0
 15 16  1  0
 16 17  2  0
 17 18  1  0
 18 19  1  0
 17 20  1  0
 20 21  2  0
 21 14  1  0
M  END
>  <zinc_id>  (16) 
ZINC000001633887

>  <smiles>  (16) 
CCCC[C@@H](CC)COC(=O)/C=C/c1ccc(OC)cc1

$$$$

     RDKit          3D

 33 35  0  0  0  0  0  0  0  0999 V2000
   -3.6999   -0.8511    2.3344 C   0  0  0  0  0  0  0  0  0  0  0  0
   -4.0122   -0.1025    1.2125 N   0  0  0  0  0  0  0  0  0  0  0  0
   -5.2252   -0.1383    0.5923 C   0  0  0  0  0  0  0  0  0  0  0  0
   -5.5392    0.7057   -0.4306 C   0  0  0  0  0  0  0  0  0  0  0  0
   -6.7473    0.6730   -1.0595 N   0  0  0  0  0  0  0  0  0  0  0  0
   -7.6605   -0.2262   -0.6533 C   0  0  0  0  0  0  0  0  0  0  0  0
   -8.9427   -0.2942   -1.2873 N   0  0  0  0  0  0  0  0  0  0  0  0
   -7.3603   -1.0639    0.3556 N   0  0  0  0  0  0  0  0  0  0  0  0
   -6.1878   -1.0562    0.9906 C   0  0  0  0  0  0  0  0  0  0  0  0
   -5.8872   -1.8302    1.9363 O   0  0  0  0  0  0  0  0  0  0  0  0
   -4.5181    1.6166   -0.7991 N   0  0  0  0  0  0  0  0  0  0  0  0
   -3.6397    2.0372    0.2061 C   0  0  0  0  0  0  0  0  0  0  0  0
   -2.8010    0.7555    0.7825 C   0  0  2  0  0  0  0  0  0  0  0  0
   -2.6484    0.0251   -0.6663 C   0  0  0  0  0  0  0  0  0  0  0  0
   -1.5722    0.5860   -1.3741 N   0  0  0  0  0  0  0  0  0  0  0  0
   -0.2439    0.4955   -0.8086 C   0  0  0  0  0  0  0  0  0  0  0  0
    0.8264    1.0086   -1.5039 C   0  0  0  0  0  0  0  0  0  0  0  0
    2.0744    0.8950   -0.9320 C   0  0  0  0  0  0  0  0  0  0  0  0
    2.3145    0.3045    0.2835 C   0  0  0  0  0  0  0  0  0  0  0  0
    3.6965    0.2620    0.7275 C   0  0  0  0  0  0  0  0  0  0  0  0
    4.0333    0.0237    1.9162 O   0  0  0  0  0  0  0  0  0  0  0  0
    4.7134    0.4898   -0.1854 N   0  0  0  0  0  0  0  0  0  0  0  0
    6.1994    0.4497    0.2410 C   0  0  1  0  0  0  0  0  0  0  0  0
    6.6582   -0.5577   -0.9840 C   0  0  0  0  0  0  0  0  0  0  0  0
    5.9043   -1.8232   -0.8532 C   0  0  0  0  0  0  0  0  0  0  0  0
    6.1472   -2.5322    0.4264 C   0  0  0  0  0  0  0  0  0  0  0  0
    6.9208   -2.1066    1.3260 O   0  0  0  0  0  0  0  0  0  0  0  0
    5.4955   -3.7220    0.6534 O   0  0  0  0  0  0  0  0  0  0  0  0
    6.6332    1.7490   -0.5467 C   0  0  0  0  0  0  0  0  0  0  0  0
    5.8565    2.4098   -1.2113 O   0  0  0  0  0  0  0  0  0  0  0  0
    7.9672    2.1141   -0.4486 O   0  0  0  0  0  0  0  0  0  0  0  0
    1.2499   -0.2032    0.9710 C   0  0  0  0  0  0  0  0  0  0  0  0
   -0.0051   -0.0936    0.4052 C   0  0  0  0  0  0  0  0  0  0  0  0
  1  2  1  0
  2  3  1  0
  3  4  2  0
  4  5  1  0
  5  6  2  0
  6  7  1  0
  6  8  1  0
  8  9  1  0
  9 10  2  0
  4 11  1  0
 11 12  1  0
 12 13  1  0
 13 14  1  6
 14 15  1  0
 15 16  1  0
 16 17  2  0
 17 18  1  0
 18 19  2  0
 19 20  1  0
 20 21  2  0
 20 22  1  0
 22 23  1  0
 23 24  1  6
 24 25  1  0
 25 26  1  0
 26 27  2  0
 26 28  1  0
 23 29  1  0
 29 30  2  0
 29 31  1  0
 19 32  1  0
 32 33  2  0
 13  2  1  0
 33 16  1  0
  9  3  1  0
M  END
>  <zinc_id>  (17) 
ZINC000002005305

>  <smiles>  (17) 
CN1c2c(nc(N)[nH]c2=O)NC[C@@H]1CNc1ccc(C(=O)N[C@@H](CCC(=O)O)C(=O)O)cc1

$$$$

     RDKit          3D

 30 34  0  0  0  0  0  0  0  0999 V2000
   -2.5109   -1.2028   -3.1245 C   0  0  0  0  0  0  0  0  0  0  0  0
   -2.5918   -0.8218   -2.6211 O   0  0  0  0  0  0  0  0  0  0  0  0
   -2.3408   -0.2783   -1.3847 C   0  0  0  0  0  0  0  0  0  0  0  0
   -1.3011   -0.7141   -0.6205 C   0  0  0  0  0  0  0  0  0  0  0  0
   -0.8915   -0.3623    0.5294 C   0  0  0  0  0  0  0  0  0  0  0  0
    0.1941   -0.6876    1.5505 C   0  0  2  0  0  0  0  0  0  0  0  0
    1.3677    0.1271    0.9037 C   0  0  0  0  0  0  0  0  0  0  0  0
    1.1532    1.4603    0.6532 C   0  0  0  0  0  0  0  0  0  0  0  0
    2.1092    2.2412    0.1042 C   0  0  0  0  0  0  0  0  0  0  0  0
    3.3396    1.7236   -0.2251 C   0  0  0  0  0  0  0  0  0  0  0  0
    3.5432    0.3869    0.0300 C   0  0  0  0  0  0  0  0  0  0  0  0
    2.5733   -0.3836    0.5814 C   0  0  0  0  0  0  0  0  0  0  0  0
    2.8494   -1.9179    0.8515 C   0  0  2  0  0  0  0  0  0  0  0  0
    3.7006   -2.1892   -0.3565 O   0  0  0  0  0  0  0  0  0  0  0  0
    1.4124   -2.3166   -0.0150 C   0  0  1  0  0  0  0  0  0  0  0  0
    1.5087   -3.8981    0.1205 C   0  0  0  0  0  0  0  0  0  0  0  0
    0.0537   -3.9915    0.0413 O   0  0  0  0  0  0  0  0  0  0  0  0
   -0.5128   -3.1121    0.9397 C   0  0  0  0  0  0  0  0  0  0  0  0
   -1.6984   -3.2007    1.1271 O   0  0  0  0  0  0  0  0  0  0  0  0
    0.6146   -2.2559    1.4403 C   0  0  2  0  0  0  0  0  0  0  0  0
    4.1527    2.7118   -0.7718 O   0  0  0  0  0  0  0  0  0  0  0  0
    3.5374    3.9447   -0.4162 C   0  0  0  0  0  0  0  0  0  0  0  0
    2.1730    3.6064   -0.2579 O   0  0  0  0  0  0  0  0  0  0  0  0
   -1.6711    0.6523    1.0714 C   0  0  0  0  0  0  0  0  0  0  0  0
   -2.7699    1.2314    0.4560 C   0  0  0  0  0  0  0  0  0  0  0  0
   -3.5503    2.2446    0.9949 O   0  0  0  0  0  0  0  0  0  0  0  0
   -3.1639    2.7026    2.2841 C   0  0  0  0  0  0  0  0  0  0  0  0
   -3.0773    0.7228   -0.8035 C   0  0  0  0  0  0  0  0  0  0  0  0
   -4.1673    1.2432   -1.5015 O   0  0  0  0  0  0  0  0  0  0  0  0
   -4.0353    2.3338   -2.3742 C   0  0  0  0  0  0  0  0  0  0  0  0
  1  2  1  0
  2  3  1  0
  3  4  2  0
  4  5  1  0
  6  5  1  6
  6  7  1  0
  7  8  2  0
  8  9  1  0
  9 10  2  0
 10 11  1  0
 11 12  2  0
 12 13  1  0
 13 14  1  6
 13 15  1  0
 15 16  1  1
 16 17  1  0
 17 18  1  0
 18 19  2  0
 20 18  1  6
 10 21  1  0
 21 22  1  0
 22 23  1  0
  5 24  2  0
 24 25  1  0
 25 26  1  0
 26 27  1  0
 25 28  2  0
 28 29  1  0
 29 30  1  0
 28  3  1  0
 20  6  1  0
 12  7  1  0
 20 15  1  0
 23  9  1  0
M  END
>  <zinc_id>  (18) 
ZINC000003861806

>  <smiles>  (18) 
COc1cc([C@@H]2c3cc4c(cc3[C@H](O)[C@H]3COC(=O)[C@H]23)OCO4)cc(OC)c1OC

$$$$

     RDKit          2D

 12 11  0  0  0  0  0  0  0  0999 V2000
    4.5609    0.1026    0.0000 O   0  0  0  0  0  0  0  0  0  0  0  0
    3.1906    0.7126    0.0000 C   0  0  0  0  0  0  0  0  0  0  0  0
    1.9771   -0.1691    0.0000 C   0  0  0  0  0  0  0  0  0  0  0  0
    2.1340   -1.6609    0.0000 O   0  0  0  0  0  0  0  0  0  0  0  0
    0.6067    0.4409    0.0000 C   0  0  0  0  0  0  0  0  0  0  0  0
    0.4498    1.9327    0.0000 O   0  0  0  0  0  0  0  0  0  0  0  0
   -0.6067   -0.4409    0.0000 C   0  0  0  0  0  0  0  0  0  0  0  0
   -0.4498   -1.9327    0.0000 O   0  0  0  0  0  0  0  0  0  0  0  0
   -1.9771    0.1691    0.0000 C   0  0  0  0  0  0  0  0  0  0  0  0
   -2.1340    1.6609    0.0000 O   0  0  0  0  0  0  0  0  0  0  0  0
   -3.1906   -0.7126    0.0000 C   0  0  0  0  0  0  0  0  0  0  0  0
   -4.5609   -0.1026    0.0000 O   0  0  0  0  0  0  0  0  0  0  0  0
  1  2  2  0
  2  3  1  0
  3  4  1  6
  3  5  1  0
  5  6  1  6
  5  7  1  0
  7  8  1  6
  7  9  1  0
  9 10  1  1
  9 11  1  0
 11 12  1  0
M  END
>  <zinc_id>  (19) 
ZINC000100009383

>  <smiles>  (19) 
O=C[C@H](O)[C@@H](O)[C@H](O)[C@H](O)CO

$$$$

     RDKit          3D

 18 20  0  0  0  0  0  0  0  0999 V2000
   -3.1895    2.8090    0.7864 C   0  0  0  0  0  0  0  0  0  0  0  0
   -3.5126    2.5938   -0.5948 N   0  0  0  0  0  0  0  0  0  0  0  0
   -2.8745    1.1999   -0.9107 C   0  0  2  0  0  0  0  0  0  0  0  0
   -3.7841    0.3856    0.1999 C   0  0  0  0  0  0  0  0  0  0  0  0
   -3.3038   -1.0406    0.1395 C   0  0  0  0  0  0  0  0  0  0  0  0
   -1.8045   -1.0972    0.0738 C   0  0  0  0  0  0  0  0  0  0  0  0
   -0.9692   -2.1414    0.0254 N   0  0  0  0  0  0  0  0  0  0  0  0
    0.3049   -1.7398   -0.0232 C   0  0  0  0  0  0  0  0  0  0  0  0
    1.5390   -2.3883   -0.0826 C   0  0  0  0  0  0  0  0  0  0  0  0
    2.7209   -1.6843   -0.1214 C   0  0  0  0  0  0  0  0  0  0  0  0
    2.7055   -0.3103   -0.1027 C   0  0  0  0  0  0  0  0  0  0  0  0
    3.9125    0.4933   -0.1397 C   0  0  0  0  0  0  0  0  0  0  0  0
    5.1673   -0.1789   -0.1883 N   0  0  0  0  0  0  0  0  0  0  0  0
    3.8992    1.7381   -0.1308 O   0  0  0  0  0  0  0  0  0  0  0  0
    1.5005    0.3457   -0.0447 C   0  0  0  0  0  0  0  0  0  0  0  0
    0.2971   -0.3809   -0.0058 C   0  0  0  0  0  0  0  0  0  0  0  0
   -1.0179    0.0175    0.0548 C   0  0  0  0  0  0  0  0  0  0  0  0
   -1.5906    1.3789    0.0927 C   0  0  0  0  0  0  0  0  0  0  0  0
  1  2  1  0
  3  2  1  1
  3  4  1  0
  4  5  1  0
  5  6  1  0
  6  7  1  0
  7  8  1  0
  8  9  2  0
  9 10  1  0
 10 11  2  0
 11 12  1  0
 12 13  1  0
 12 14  2  0
 11 15  1  0
 15 16  2  0
 16 17  1  0
 17 18  1  0
 18  3  1  0
 17  6  2  0
 16  8  1  0
M  END
>  <zinc_id>  (20) 
ZINC000000018635

>  <smiles>  (20) 
CN[C@@H]1CCc2[nH]c3ccc(C(N)=O)cc3c2C1

$$$$

     RDKit          3D

 16 18  0  0  0  0  0  0  0  0999 V2000
    1.2277    2.5706   -1.3889 C   0  0  0  0  0  0  0  0  0  0  0  0
    0.9100    1.2092   -1.7012 O   0  0  0  0  0  0  0  0  0  0  0  0
    0.6490    0.3402   -0.6557 C   0  0  0  0  0  0  0  0  0  0  0  0
    1.7011   -0.3592   -0.1045 C   0  0  0  0  0  0  0  0  0  0  0  0
    2.9985   -0.4013   -0.3551 O   0  0  0  0  0  0  0  0  0  0  0  0
    3.5755   -1.2477    0.4719 C   0  0  0  0  0  0  0  0  0  0  0  0
    2.6116   -1.7787    1.2959 C   0  0  0  0  0  0  0  0  0  0  0  0
    1.4051   -1.2249    0.9453 C   0  0  0  0  0  0  0  0  0  0  0  0
    0.1010   -1.3530    1.3905 C   0  0  0  0  0  0  0  0  0  0  0  0
   -0.9284   -0.6351    0.8132 C   0  0  0  0  0  0  0  0  0  0  0  0
   -2.2365   -0.7492    1.2435 C   0  0  0  0  0  0  0  0  0  0  0  0
   -3.1711    0.0227    0.5831 C   0  0  0  0  0  0  0  0  0  0  0  0
   -2.8552    0.8731   -0.4540 C   0  0  0  0  0  0  0  0  0  0  0  0
   -3.7389    1.5643   -1.0345 O   0  0  0  0  0  0  0  0  0  0  0  0
   -1.5969    0.9394   -0.8185 O   0  0  0  0  0  0  0  0  0  0  0  0
   -0.6524    0.2296   -0.2309 C   0  0  0  0  0  0  0  0  0  0  0  0
  1  2  1  0
  2  3  1  0
  3  4  2  0
  4  5  1  0
  5  6  1  0
  6  7  2  0
  7  8  1  0
  8  9  2  0
  9 10  1  0
 10 11  1  0
 11 12  2  0
 12 13  1  0
 13 14  2  0
 13 15  1  0
 15 16  1  0
 16  3  1  0
  8  4  1  0
 16 10  2  0
M  END
>  <zinc_id>  (21) 
ZINC000002548959

>  <smiles>  (21) 
COc1c2occc2cc2ccc(=O)oc12

$$$$

     RDKit          3D

 24 27  0  0  0  0  0  0  0  0999 V2000
    3.4957    1.1440    1.9962 C   0  0  0  0  0  0  0  0  0  0  0  0
    3.9951    1.3752    0.8333 C   0  0  0  0  0  0  0  0  0  0  0  0
    4.2378    0.2498   -0.2250 C   0  0  1  0  0  0  0  0  0  0  0  0
    3.1508   -0.7954    0.3615 C   0  0  0  0  0  0  0  0  0  0  0  0
    2.6406   -1.5587   -0.6964 N   0  0  0  0  0  0  0  0  0  0  0  0
    3.6521   -1.5098   -1.7669 C   0  0  0  0  0  0  0  0  0  0  0  0
    3.4503   -0.2370   -2.4985 C   0  0  0  0  0  0  0  0  0  0  0  0
    3.2411    0.9712   -1.4212 C   0  0  1  0  0  0  0  0  0  0  0  0
    1.7975    0.6169   -0.8183 C   0  0  0  0  0  0  0  0  0  0  0  0
    1.4687   -0.8425   -1.4381 C   0  0  2  0  0  0  0  0  0  0  0  0
    0.2263   -1.3465   -0.4089 C   0  0  1  0  0  0  0  0  0  0  0  0
    0.6547   -0.7272    0.8895 O   0  0  0  0  0  0  0  0  0  0  0  0
   -0.8172   -0.1931   -0.8009 C   0  0  0  0  0  0  0  0  0  0  0  0
   -0.6418    0.6395   -1.8269 C   0  0  0  0  0  0  0  0  0  0  0  0
   -1.6139    1.5816   -2.0823 C   0  0  0  0  0  0  0  0  0  0  0  0
   -2.7210    1.6810   -1.3320 N   0  0  0  0  0  0  0  0  0  0  0  0
   -2.8685    0.8237   -0.3009 C   0  0  0  0  0  0  0  0  0  0  0  0
   -4.0061    0.8935    0.5015 C   0  0  0  0  0  0  0  0  0  0  0  0
   -4.1763    0.0274    1.5561 C   0  0  0  0  0  0  0  0  0  0  0  0
   -3.2157   -0.9258    1.8322 C   0  0  0  0  0  0  0  0  0  0  0  0
   -3.3973   -1.8055    2.9100 O   0  0  0  0  0  0  0  0  0  0  0  0
   -4.5318   -1.7375    3.7104 C   0  0  0  0  0  0  0  0  0  0  0  0
   -2.0893   -0.9889    1.0321 C   0  0  0  0  0  0  0  0  0  0  0  0
   -1.9318   -0.1288   -0.0066 C   0  0  0  0  0  0  0  0  0  0  0  0
  1  2  2  0
  3  2  1  1
  3  4  1  0
  4  5  1  0
  5  6  1  0
  6  7  1  0
  8  7  1  6
  8  9  1  0
 10  9  1  1
 10 11  1  0
 11 12  1  1
 11 13  1  0
 13 14  2  0
 14 15  1  0
 15 16  2  0
 16 17  1  0
 17 18  2  0
 18 19  1  0
 19 20  2  0
 20 21  1  0
 21 22  1  0
 20 23  1  0
 23 24  2  0
  8  3  1  0
 24 13  1  0
 10  5  1  0
 24 17  1  0
M  END
>  <zinc_id>  (22) 
ZINC000003831405

>  <smiles>  (22) 
C=C[C@H]1CN2CC[C@H]1C[C@@H]2[C@@H](O)c1ccnc2ccc(OC)cc12

$$$$

     RDKit          3D

 24 27  0  0  0  0  0  0  0  0999 V2000
    6.2693   -0.6910   -1.0273 C   0  0  0  0  0  0  0  0  0  0  0  0
    5.0087   -0.8803   -1.0443 C   0  0  0  0  0  0  0  0  0  0  0  0
    4.3683    0.3058   -0.1977 C   0  0  1  0  0  0  0  0  0  0  0  0
    3.1504    0.5720   -1.1820 C   0  0  0  0  0  0  0  0  0  0  0  0
    2.0949    0.9391   -0.1988 N   0  0  0  0  0  0  0  0  0  0  0  0
    2.6206    1.2918    0.9684 C   0  0  0  0  0  0  0  0  0  0  0  0
    3.1114    0.2919    1.8677 C   0  0  0  0  0  0  0  0  0  0  0  0
    3.7368   -0.8566    0.8774 C   0  0  1  0  0  0  0  0  0  0  0  0
    2.4644   -1.3872    0.1130 C   0  0  0  0  0  0  0  0  0  0  0  0
    1.3373   -0.3484   -0.3584 C   0  0  1  0  0  0  0  0  0  0  0  0
    0.3040   -0.5418    0.8924 C   0  0  2  0  0  0  0  0  0  0  0  0
   -0.2606   -1.7918    0.3787 O   0  0  0  0  0  0  0  0  0  0  0  0
   -0.7675    0.5334    0.6701 C   0  0  0  0  0  0  0  0  0  0  0  0
   -0.4295    1.8076    1.0392 C   0  0  0  0  0  0  0  0  0  0  0  0
   -1.2900    2.8016    1.0820 C   0  0  0  0  0  0  0  0  0  0  0  0
   -2.5713    2.6167    0.7526 N   0  0  0  0  0  0  0  0  0  0  0  0
   -2.9505    1.3546    0.3700 C   0  0  0  0  0  0  0  0  0  0  0  0
   -4.2364    1.1349   -0.0486 C   0  0  0  0  0  0  0  0  0  0  0  0
   -4.5920   -0.1388   -0.5050 C   0  0  0  0  0  0  0  0  0  0  0  0
   -3.6940   -1.1701   -0.5511 C   0  0  0  0  0  0  0  0  0  0  0  0
   -3.9879   -2.4342   -1.0152 O   0  0  0  0  0  0  0  0  0  0  0  0
   -5.2285   -2.8153   -1.5173 C   0  0  0  0  0  0  0  0  0  0  0  0
   -2.4232   -0.9304   -0.1308 C   0  0  0  0  0  0  0  0  0  0  0  0
   -2.0348    0.3363    0.3376 C   0  0  0  0  0  0  0  0  0  0  0  0
  1  2  2  0
  3  2  1  6
  3  4  1  0
  4  5  1  0
  5  6  1  0
  6  7  1  0
  8  7  1  1
  8  9  1  0
 10  9  1  1
 10 11  1  0
 11 12  1  6
 11 13  1  0
 13 14  2  0
 14 15  1  0
 15 16  2  0
 16 17  1  0
 17 18  2  0
 18 19  1  0
 19 20  2  0
 20 21  1  0
 21 22  1  0
 20 23  1  0
 23 24  2  0
  8  3  1  0
 24 13  1  0
 10  5  1  0
 24 17  1  0
M  END
>  <zinc_id>  (23) 
ZINC000003831404

>  <smiles>  (23) 
C=C[C@H]1CN2CC[C@H]1C[C@H]2[C@H](O)c1ccnc2ccc(OC)cc12

$$$$

     RDKit          3D

 24 28  0  0  0  0  0  0  0  0999 V2000
    5.1501   -0.0872   -1.3960 C   0  0  0  0  0  0  0  0  0  0  0  0
    4.3897    0.0996   -1.1092 C   0  0  0  0  0  0  0  0  0  0  0  0
    3.6881    0.3499    0.1710 C   0  0  0  0  0  0  0  0  0  0  0  0
    2.6015   -0.6001    0.3969 N   0  0  0  0  0  0  0  0  0  0  0  0
    1.9812   -0.3391    1.5810 C   0  0  0  0  0  0  0  0  0  0  0  0
    0.5723   -0.5976    1.8743 C   0  0  0  0  0  0  0  0  0  0  0  0
   -0.3310   -0.5469    0.6424 C   0  0  1  0  0  0  0  0  0  0  0  0
   -0.8088    0.7340    0.2796 C   0  0  0  0  0  0  0  0  0  0  0  0
   -2.1111    0.8692    0.4928 C   0  0  0  0  0  0  0  0  0  0  0  0
   -2.6480    2.1172    0.1243 C   0  0  0  0  0  0  0  0  0  0  0  0
   -4.0062    2.3245    0.3207 O   0  0  0  0  0  0  0  0  0  0  0  0
   -1.8158    3.0991   -0.4204 C   0  0  0  0  0  0  0  0  0  0  0  0
   -0.4340    2.8425   -0.6024 C   0  0  0  0  0  0  0  0  0  0  0  0
    0.0787    1.6162   -0.2370 C   0  0  0  0  0  0  0  0  0  0  0  0
    1.4485    1.2404   -0.3484 C   0  0  0  0  0  0  0  0  0  0  0  0
    1.6995   -0.2590   -0.8375 C   0  0  2  0  0  0  0  0  0  0  0  0
    0.4489   -1.1294   -0.3743 C   0  0  1  0  0  0  0  0  0  0  0  0
    0.9376   -2.3985    0.0245 O   0  0  0  0  0  0  0  0  0  0  0  0
   -0.2043   -1.4395   -1.7265 C   0  0  0  0  0  0  0  0  0  0  0  0
   -1.1213   -2.5721   -1.3021 C   0  0  0  0  0  0  0  0  0  0  0  0
   -2.0482   -1.9267   -0.3937 C   0  0  0  0  0  0  0  0  0  0  0  0
   -3.2013   -1.7983   -0.7301 O   0  0  0  0  0  0  0  0  0  0  0  0
   -1.6430   -1.3776    1.0219 C   0  0  2  0  0  0  0  0  0  0  0  0
   -2.6230   -0.2207    1.0156 O   0  0  0  0  0  0  0  0  0  0  0  0
  1  2  2  0
  2  3  1  0
  3  4  1  0
  4  5  1  0
  5  6  1  0
  7  6  1  1
  7  8  1  0
  8  9  2  0
  9 10  1  0
 10 11  1  0
 10 12  2  0
 12 13  1  0
 13 14  2  0
 14 15  1  0
 16 15  1  1
 16 17  1  0
 17 18  1  1
 17 19  1  0
 19 20  1  0
 20 21  1  0
 21 22  2  0
 21 23  1  0
 23 24  1  6
 16  4  1  0
 17  7  1  0
 23  7  1  0
 14  8  1  0
 24  9  1  0
M  END
>  <zinc_id>  (24) 
ZINC000000389747

>  <smiles>  (24) 
C=CCN1CC[C@]23c4c5ccc(O)c4O[C@H]2C(=O)CC[C@@]3(O)[C@H]1C5

$$$$

     RDKit          3D

 25 26  0  0  0  0  0  0  0  0999 V2000
   -1.7928    4.6622   -0.4503 C   0  0  0  0  0  0  0  0  0  0  0  0
   -0.6186    3.8708   -0.3930 O   0  0  0  0  0  0  0  0  0  0  0  0
   -0.7079    2.5250   -0.1032 C   0  0  0  0  0  0  0  0  0  0  0  0
   -1.8331    2.0432    0.1015 O   0  0  0  0  0  0  0  0  0  0  0  0
    0.4697    1.6604   -0.0311 C   0  0  0  0  0  0  0  0  0  0  0  0
    1.6276    2.2298   -0.2650 C   0  0  0  0  0  0  0  0  0  0  0  0
    1.6511    3.7094   -0.5762 C   0  0  0  0  0  0  0  0  0  0  0  0
    2.8236    1.4788   -0.2964 N   0  0  0  0  0  0  0  0  0  0  0  0
    2.7936    0.0980   -0.0769 C   0  0  0  0  0  0  0  0  0  0  0  0
    4.0537   -0.7083   -0.1200 C   0  0  0  0  0  0  0  0  0  0  0  0
    1.6175   -0.5115    0.1758 C   0  0  0  0  0  0  0  0  0  0  0  0
    1.7064   -1.9411    0.3689 C   0  0  0  0  0  0  0  0  0  0  0  0
    2.8564   -2.5434    0.3233 O   0  0  0  0  0  0  0  0  0  0  0  0
    0.6713   -2.8095    0.6055 O   0  0  0  0  0  0  0  0  0  0  0  0
    0.8027   -4.1984    0.7829 C   0  0  0  0  0  0  0  0  0  0  0  0
    0.3456    0.2372    0.3442 C   0  0  0  0  0  0  0  0  0  0  0  0
   -0.7359   -0.4379   -0.3997 C   0  0  0  0  0  0  0  0  0  0  0  0
   -0.7189   -0.5651   -1.7717 C   0  0  0  0  0  0  0  0  0  0  0  0
   -1.6579   -1.2570   -2.5039 C   0  0  0  0  0  0  0  0  0  0  0  0
   -2.6972   -1.8737   -1.8307 C   0  0  0  0  0  0  0  0  0  0  0  0
   -2.7329   -1.7581   -0.4725 C   0  0  0  0  0  0  0  0  0  0  0  0
   -1.7898   -1.0598    0.2743 C   0  0  0  0  0  0  0  0  0  0  0  0
   -1.9980   -0.9784    1.6702 N   0  0  0  0  0  0  0  0  0  0  0  0
   -3.1556   -1.0739    2.1053 O   0  0  0  0  0  0  0  0  0  0  0  0
   -0.9806   -0.7987    2.5388 O   0  0  0  0  0  0  0  0  0  0  0  0
  1  2  1  0
  2  3  1  0
  3  4  2  0
  3  5  1  0
  5  6  2  0
  6  7  1  0
  6  8  1  0
  8  9  1  0
  9 10  1  0
  9 11  2  0
 11 12  1  0
 12 13  2  0
 12 14  1  0
 14 15  1  0
 11 16  1  0
 16 17  1  0
 17 18  2  0
 18 19  1  0
 19 20  2  0
 20 21  1  0
 21 22  2  0
 22 23  1  0
 23 24  2  0
 23 25  1  0
 16  5  1  0
 22 17  1  0
M  CHG  2  23   1  25  -1
M  END
>  <zinc_id>  (25) 
ZINC000085205448

>  <smiles>  (25) 
COC(=O)C1=C(C)NC(C)=C(C(=O)OC)C1c1ccccc1[N+](=O)[O-]

$$$$

     RDKit          3D

 11 12  0  0  0  0  0  0  0  0999 V2000
   -0.5746   -1.3718   -1.0352 C   0  0  0  0  0  0  0  0  0  0  0  0
   -0.7730   -0.4240   -0.5520 C   0  0  0  0  0  0  0  0  0  0  0  0
   -2.0684    0.2690   -0.9126 C   0  0  0  0  0  0  0  0  0  0  0  0
   -0.9771   -0.6964    1.0506 C   0  0  2  0  0  0  0  0  0  0  0  0
   -0.9784    0.8832    1.4801 C   0  0  0  0  0  0  0  0  0  0  0  0
   -0.2033    1.5525    0.4499 C   0  0  0  0  0  0  0  0  0  0  0  0
    0.3779    0.5325   -0.4544 C   0  0  2  0  0  0  0  0  0  0  0  0
    0.8334    0.9830   -1.7701 C   0  0  0  0  0  0  0  0  0  0  0  0
    1.3072   -0.3219    0.3027 C   0  0  0  0  0  0  0  0  0  0  0  0
    2.4637   -0.4816    0.0378 O   0  0  0  0  0  0  0  0  0  0  0  0
    0.5924   -0.9245    1.4032 C   0  0  0  0  0  0  0  0  0  0  0  0
  1  2  1  0
  2  3  1  0
  2  4  1  0
  4  5  1  1
  5  6  1  0
  6  7  1  0
  7  8  1  6
  7  9  1  0
  9 10  2  0
  9 11  1  0
  7  2  1  0
 11  4  1  0
M  END
>  <zinc_id>  (26) 
ZINC000000967520

>  <smiles>  (26) 
CC1(C)[C@@H]2CC[C@@]1(C)C(=O)C2

$$$$

     RDKit          3D

 21 21  0  0  0  0  0  0  0  0999 V2000
    4.2915   -4.5551    3.1795 C   0  0  0  0  0  0  0  0  0  0  0  0
    4.3656   -3.0950    3.2160 C   0  0  0  0  0  0  0  0  0  0  0  0
    3.0343   -2.4571    3.0068 C   0  0  0  0  0  0  0  0  0  0  0  0
    2.5109   -2.8901    1.6377 C   0  0  0  0  0  0  0  0  0  0  0  0
    3.6656   -2.3265    0.6594 C   0  0  2  0  0  0  0  0  0  0  0  0
    3.4456   -0.7423    1.1269 C   0  0  0  0  0  0  0  0  0  0  0  0
    4.4727   -0.0428    0.2896 C   0  0  0  0  0  0  0  0  0  0  0  0
    2.8160   -2.2157   -0.6769 C   0  0  0  0  0  0  0  0  0  0  0  0
    1.7936   -1.4458   -0.7533 O   0  0  0  0  0  0  0  0  0  0  0  0
    0.5498   -1.2036   -0.3041 C   0  0  0  0  0  0  0  0  0  0  0  0
    0.0396   -1.9609    0.5330 O   0  0  0  0  0  0  0  0  0  0  0  0
   -0.2478   -0.0585   -0.7702 C   0  0  0  0  0  0  0  0  0  0  0  0
   -1.4427    0.0856   -0.2711 C   0  0  0  0  0  0  0  0  0  0  0  0
   -2.2797    1.2102   -0.7016 C   0  0  0  0  0  0  0  0  0  0  0  0
   -3.5508    1.3954   -0.1949 C   0  0  0  0  0  0  0  0  0  0  0  0
   -4.3621    2.4447   -0.5811 C   0  0  0  0  0  0  0  0  0  0  0  0
   -3.9231    3.3662   -1.5070 C   0  0  0  0  0  0  0  0  0  0  0  0
   -4.6882    4.4430   -1.9377 O   0  0  0  0  0  0  0  0  0  0  0  0
   -5.9799    4.7127   -1.4849 C   0  0  0  0  0  0  0  0  0  0  0  0
   -2.6566    3.1935   -2.0208 C   0  0  0  0  0  0  0  0  0  0  0  0
   -1.8542    2.1420   -1.6284 C   0  0  0  0  0  0  0  0  0  0  0  0
  1  2  1  0
  2  3  1  0
  3  4  1  0
  5  4  1  1
  5  6  1  0
  6  7  1  0
  5  8  1  0
  8  9  1  0
  9 10  1  0
 10 11  2  0
 10 12  1  0
 12 13  2  0
 13 14  1  0
 14 15  2  0
 15 16  1  0
 16 17  2  0
 17 18  1  0
 18 19  1  0
 17 20  1  0
 20 21  2  0
 21 14  1  0
M  END
>  <zinc_id>  (27) 
ZINC000001633889

>  <smiles>  (27) 
CCCC[C@H](CC)COC(=O)/C=C/c1ccc(OC)cc1

$$$$

     RDKit          3D

 39 38  0  0  0  0  0  0  0  0999 V2000
   10.5203   -0.8571    1.3029 C   0  0  0  0  0  0  0  0  0  0  0  0
   10.0748   -0.2407    2.5941 C   0  0  0  0  0  0  0  0  0  0  0  0
   10.4908    0.9018    2.9001 O   0  0  0  0  0  0  0  0  0  0  0  0
    9.1986   -0.9219    3.4676 N   0  0  0  0  0  0  0  0  0  0  0  0
    8.8107   -0.3514    4.6215 O   0  0  0  0  0  0  0  0  0  0  0  0
    8.7287   -2.2350    3.1026 C   0  0  0  0  0  0  0  0  0  0  0  0
    7.4439   -2.1763    2.3044 C   0  0  0  0  0  0  0  0  0  0  0  0
    6.3920   -1.4930    3.1663 C   0  0  0  0  0  0  0  0  0  0  0  0
    5.0711   -1.3900    2.4472 C   0  0  0  0  0  0  0  0  0  0  0  0
    5.3312   -0.5650    1.1815 C   0  0  0  0  0  0  0  0  0  0  0  0
    4.0672   -0.4586    0.4805 N   0  0  0  0  0  0  0  0  0  0  0  0
    3.8919    0.2296   -0.7382 C   0  0  0  0  0  0  0  0  0  0  0  0
    4.9011    0.7915   -1.2557 O   0  0  0  0  0  0  0  0  0  0  0  0
    2.5861    0.3254   -1.4388 C   0  0  0  0  0  0  0  0  0  0  0  0
    2.6849    1.1137   -2.7125 C   0  0  0  0  0  0  0  0  0  0  0  0
    1.3571    1.1733   -3.3614 C   0  0  0  0  0  0  0  0  0  0  0  0
    0.3542    0.6207   -2.8517 O   0  0  0  0  0  0  0  0  0  0  0  0
    1.1988    1.8639   -4.5826 N   0  0  0  0  0  0  0  0  0  0  0  0
    2.2671    2.4619   -5.1415 O   0  0  0  0  0  0  0  0  0  0  0  0
   -0.0880    1.9424   -5.2458 C   0  0  0  0  0  0  0  0  0  0  0  0
   -0.8726    3.1682   -4.7834 C   0  0  0  0  0  0  0  0  0  0  0  0
   -2.1923    3.1642   -5.5255 C   0  0  0  0  0  0  0  0  0  0  0  0
   -2.9919    1.9146   -5.2357 C   0  0  0  0  0  0  0  0  0  0  0  0
   -3.2986    1.8037   -3.7381 C   0  0  0  0  0  0  0  0  0  0  0  0
   -4.0711    0.5648   -3.5766 N   0  0  0  0  0  0  0  0  0  0  0  0
   -4.5247    0.1564   -2.2816 C   0  0  0  0  0  0  0  0  0  0  0  0
   -4.2216    0.9131   -1.3264 O   0  0  0  0  0  0  0  0  0  0  0  0
   -5.3078   -1.0849   -2.0628 C   0  0  0  0  0  0  0  0  0  0  0  0
   -5.6094   -1.1942   -0.5904 C   0  0  0  0  0  0  0  0  0  0  0  0
   -6.3909   -2.4253   -0.3431 C   0  0  0  0  0  0  0  0  0  0  0  0
   -6.6855   -3.1716   -1.3115 O   0  0  0  0  0  0  0  0  0  0  0  0
   -6.7855   -2.7251    0.9922 N   0  0  0  0  0  0  0  0  0  0  0  0
   -7.5018   -3.8643    1.1801 O   0  0  0  0  0  0  0  0  0  0  0  0
   -6.4286   -1.8450    2.0736 C   0  0  0  0  0  0  0  0  0  0  0  0
   -7.5104   -0.7942    2.2736 C   0  0  0  0  0  0  0  0  0  0  0  0
   -7.1357    0.1323    3.4112 C   0  0  0  0  0  0  0  0  0  0  0  0
   -8.2041    1.1674    3.6061 C   0  0  0  0  0  0  0  0  0  0  0  0
   -7.8409    2.1005    4.7415 C   0  0  0  0  0  0  0  0  0  0  0  0
   -7.7093    1.2841    5.9403 N   0  0  0  0  0  0  0  0  0  0  0  0
  1  2  1  0
  2  3  2  0
  2  4  1  0
  4  5  1  0
  4  6  1  0
  6  7  1  0
  7  8  1  0
  8  9  1  0
  9 10  1  0
 10 11  1  0
 11 12  1  0
 12 13  2  0
 12 14  1  0
 14 15  1  0
 15 16  1  0
 16 17  2  0
 16 18  1  0
 18 19  1  0
 18 20  1  0
 20 21  1  0
 21 22  1  0
 22 23  1  0
 23 24  1  0
 24 25  1  0
 25 26  1  0
 26 27  2  0
 26 28  1  0
 28 29  1  0
 29 30  1  0
 30 31  2  0
 30 32  1  0
 32 33  1  0
 32 34  1  0
 34 35  1  0
 35 36  1  0
 36 37  1  0
 37 38  1  0
 38 39  1  0
M  END
>  <zinc_id>  (28) 
ZINC000003830635

>  <smiles>  (28) 
CC(=O)N(O)CCCCCNC(=O)CCC(=O)N(O)CCCCCNC(=O)CCC(=O)N(O)CCCCCN

$$$$

     RDKit          3D

 39 43  0  0  0  0  0  0  0  0999 V2000
   -5.0258    3.9057   -0.4646 C   0  0  0  0  0  0  0  0  0  0  0  0
   -4.2849    2.9959    0.3370 O   0  0  0  0  0  0  0  0  0  0  0  0
   -3.7339    1.8483   -0.2929 C   0  0  0  0  0  0  0  0  0  0  0  0
   -3.9994    1.8033   -1.5226 O   0  0  0  0  0  0  0  0  0  0  0  0
   -2.9807    0.9269    0.5188 C   0  0  0  0  0  0  0  0  0  0  0  0
   -2.2673   -0.2227   -0.2586 C   0  0  2  0  0  0  0  0  0  0  0  0
   -3.2543   -0.8472   -0.9748 O   0  0  0  0  0  0  0  0  0  0  0  0
   -1.7485   -1.0944    0.8519 C   0  0  0  0  0  0  0  0  0  0  0  0
   -2.7918   -1.5834    1.7347 C   0  0  0  0  0  0  0  0  0  0  0  0
   -3.8224   -2.4085    1.1112 C   0  0  0  0  0  0  0  0  0  0  0  0
   -4.8755   -2.9063    2.0688 C   0  0  0  0  0  0  0  0  0  0  0  0
   -5.6210   -1.7694    2.7035 C   0  0  0  0  0  0  0  0  0  0  0  0
   -5.8889   -3.8201    1.3649 C   0  0  0  0  0  0  0  0  0  0  0  0
   -4.2477   -3.6765    3.0609 O   0  0  0  0  0  0  0  0  0  0  0  0
   -1.2469    0.4072   -1.0975 C   0  0  0  0  0  0  0  0  0  0  0  0
   -1.6910    0.9983   -2.1581 O   0  0  0  0  0  0  0  0  0  0  0  0
    0.1095    0.4519   -0.9533 O   0  0  0  0  0  0  0  0  0  0  0  0
    0.9270    1.2070   -1.8599 C   0  0  2  0  0  0  0  0  0  0  0  0
    1.1369    0.3657   -3.1196 C   0  0  0  0  0  0  0  0  0  0  0  0
    0.1252    0.4717   -4.1268 O   0  0  0  0  0  0  0  0  0  0  0  0
    0.3633    1.4476   -5.1373 C   0  0  0  0  0  0  0  0  0  0  0  0
    2.1876   -0.3246   -3.1530 C   0  0  0  0  0  0  0  0  0  0  0  0
    2.9719   -0.1976   -2.0413 C   0  0  2  0  0  0  0  0  0  0  0  0
    4.2610    0.4423   -2.5563 C   0  0  0  0  0  0  0  0  0  0  0  0
    5.4162   -0.3036   -1.9121 C   0  0  0  0  0  0  0  0  0  0  0  0
    4.7399   -0.9926   -0.7425 C   0  0  0  0  0  0  0  0  0  0  0  0
    3.4474   -1.1417   -1.2214 N   0  0  0  0  0  0  0  0  0  0  0  0
    2.7100   -2.2993   -0.8976 C   0  0  0  0  0  0  0  0  0  0  0  0
    1.7512   -1.7831    0.1127 C   0  0  0  0  0  0  0  0  0  0  0  0
    2.1296   -0.5445    0.8052 C   0  0  0  0  0  0  0  0  0  0  0  0
    2.2553   -0.7765    2.1853 C   0  0  0  0  0  0  0  0  0  0  0  0
    2.6613    0.2887    2.9582 C   0  0  0  0  0  0  0  0  0  0  0  0
    2.9153    1.4982    2.3960 C   0  0  0  0  0  0  0  0  0  0  0  0
    2.7719    1.6777    1.0050 C   0  0  0  0  0  0  0  0  0  0  0  0
    2.3645    0.6081    0.1885 C   0  0  0  0  0  0  0  0  0  0  0  0
    2.4527    1.1440   -1.2390 C   0  0  2  0  0  0  0  0  0  0  0  0
    3.3009    2.3485    3.4315 O   0  0  0  0  0  0  0  0  0  0  0  0
    3.6125    1.5191    4.5612 C   0  0  0  0  0  0  0  0  0  0  0  0
    2.8688    0.3357    4.3337 O   0  0  0  0  0  0  0  0  0  0  0  0
  1  2  1  0
  2  3  1  0
  3  4  2  0
  3  5  1  0
  5  6  1  0
  6  7  1  6
  6  8  1  0
  8  9  1  0
  9 10  1  0
 10 11  1  0
 11 12  1  0
 11 13  1  0
 11 14  1  0
  6 15  1  0
 15 16  2  0
 15 17  1  0
 18 17  1  1
 18 19  1  0
 19 20  1  0
 20 21  1  0
 19 22  2  0
 23 22  1  6
 23 24  1  0
 24 25  1  0
 25 26  1  0
 26 27  1  0
 27 28  1  0
 28 29  1  0
 29 30  1  0
 30 31  2  0
 31 32  1  0
 32 33  2  0
 33 34  1  0
 34 35  2  0
 36 35  1  1
 33 37  1  0
 37 38  1  0
 38 39  1  0
 36 18  1  0
 27 23  1  0
 35 30  1  0
 36 23  1  0
 39 32  1  0
M  END
>  <zinc_id>  (29) 
ZINC000026011099

>  <smiles>  (29) 
COC(=O)C[C@](O)(CCCC(C)(C)O)C(=O)O[C@@H]1C(OC)=C[C@]23CCCN2CCc2cc4c(cc2[C@H]13)OCO4

$$$$

     RDKit          3D

 19 20  0  0  0  0  0  0  0  0999 V2000
   -3.8538   -1.8244   -0.0048 C   0  0  0  0  0  0  0  0  0  0  0  0
   -3.4172   -0.4775    0.8977 C   0  0  2  0  0  0  0  0  0  0  0  0
   -4.4329    0.5372    0.1689 C   0  0  0  0  0  0  0  0  0  0  0  0
   -4.9133    1.3982    0.9363 O   0  0  0  0  0  0  0  0  0  0  0  0
   -4.7369    0.4760   -1.1166 O   0  0  0  0  0  0  0  0  0  0  0  0
   -2.1255   -0.1499    0.0145 C   0  0  0  0  0  0  0  0  0  0  0  0
   -2.1695    0.4049   -1.1742 C   0  0  0  0  0  0  0  0  0  0  0  0
   -1.0116    0.6492   -1.8828 C   0  0  0  0  0  0  0  0  0  0  0  0
    0.1955    0.3024   -1.3256 C   0  0  0  0  0  0  0  0  0  0  0  0
    0.2511   -0.2800   -0.0781 C   0  0  0  0  0  0  0  0  0  0  0  0
    1.5039   -0.6649    0.5356 C   0  0  0  0  0  0  0  0  0  0  0  0
    1.5128   -1.4302    1.5260 O   0  0  0  0  0  0  0  0  0  0  0  0
    2.7866   -0.1924    0.0401 C   0  0  0  0  0  0  0  0  0  0  0  0
    2.8712    0.8951   -0.8103 C   0  0  0  0  0  0  0  0  0  0  0  0
    4.0827    1.3472   -1.2766 C   0  0  0  0  0  0  0  0  0  0  0  0
    5.2443    0.7109   -0.8954 C   0  0  0  0  0  0  0  0  0  0  0  0
    5.1965   -0.3800   -0.0464 C   0  0  0  0  0  0  0  0  0  0  0  0
    3.9638   -0.8110    0.4046 C   0  0  0  0  0  0  0  0  0  0  0  0
   -0.9478   -0.5108    0.6079 C   0  0  0  0  0  0  0  0  0  0  0  0
  2  1  1  6
  2  3  1  0
  3  4  2  0
  3  5  1  0
  2  6  1  0
  6  7  2  0
  7  8  1  0
  8  9  2  0
  9 10  1  0
 10 11  1  0
 11 12  2  0
 11 13  1  0
 13 14  2  0
 14 15  1  0
 15 16  2  0
 16 17  1  0
 17 18  2  0
 10 19  2  0
 19  6  1  0
 18 13  1  0
M  END
>  <zinc_id>  (30) 
ZINC000000005560

>  <smiles>  (30) 
C[C@H](C(=O)O)c1cccc(C(=O)c2ccccc2)c1

$$$$

     RDKit          3D

 24 25  0  0  0  0  0  0  0  0999 V2000
   -3.4517    4.0332   -0.5413 C   0  0  0  0  0  0  0  0  0  0  0  0
   -3.3238    2.6268   -0.1482 C   0  0  0  0  0  0  0  0  0  0  0  0
   -4.3284    2.0381    0.5805 C   0  0  0  0  0  0  0  0  0  0  0  0
   -4.2464    0.7221    0.9684 C   0  0  0  0  0  0  0  0  0  0  0  0
   -3.1457   -0.0062    0.6203 C   0  0  0  0  0  0  0  0  0  0  0  0
   -2.1254    0.5442   -0.1042 C   0  0  0  0  0  0  0  0  0  0  0  0
   -0.9644   -0.1521   -0.4949 N   0  0  0  0  0  0  0  0  0  0  0  0
   -0.7669   -1.4968   -0.1591 C   0  0  0  0  0  0  0  0  0  0  0  0
   -1.6956   -2.2321    0.5774 C   0  0  0  0  0  0  0  0  0  0  0  0
   -1.4151   -3.5510    0.8604 C   0  0  0  0  0  0  0  0  0  0  0  0
   -0.2743   -4.1110    0.4358 N   0  0  0  0  0  0  0  0  0  0  0  0
    0.6221   -3.4007   -0.2752 C   0  0  0  0  0  0  0  0  0  0  0  0
    0.4100   -2.0889   -0.5925 C   0  0  0  0  0  0  0  0  0  0  0  0
    1.5595   -1.1924   -1.4994 S   0  0  0  0  0  0  0  0  0  0  0  0
    0.9389   -0.6227   -2.7688 O   0  0  0  0  0  0  0  0  0  0  0  0
    2.6886   -2.1028   -1.9061 O   0  0  0  0  0  0  0  0  0  0  0  0
    2.1538    0.1854   -0.6234 N   0  0  0  0  0  0  0  0  0  0  0  0
    3.4194    0.2416   -0.3919 C   0  0  0  0  0  0  0  0  0  0  0  0
    4.2610   -0.7896   -0.8447 O   0  0  0  0  0  0  0  0  0  0  0  0
    3.9295    1.3431    0.3140 N   0  0  0  0  0  0  0  0  0  0  0  0
    3.1576    2.5230    0.5328 C   0  0  0  0  0  0  0  0  0  0  0  0
    2.7129    3.2108   -0.7119 C   0  0  0  0  0  0  0  0  0  0  0  0
    2.1117    2.4029    1.5902 C   0  0  0  0  0  0  0  0  0  0  0  0
   -2.2270    1.8749   -0.4865 C   0  0  0  0  0  0  0  0  0  0  0  0
  1  2  1  0
  2  3  2  0
  3  4  1  0
  4  5  2  0
  5  6  1  0
  6  7  1  0
  7  8  1  0
  8  9  2  0
  9 10  1  0
 10 11  2  0
 11 12  1  0
 12 13  2  0
 13 14  1  0
 14 15  2  0
 14 16  2  0
 14 17  1  0
 17 18  2  0
 18 19  1  0
 18 20  1  0
 20 21  1  0
 21 22  1  0
 21 23  1  0
  6 24  2  0
 24  2  1  0
 13  8  1  0
M  END
>  <zinc_id>  (31) 
ZINC000000005823

>  <smiles>  (31) 
Cc1cccc(Nc2ccncc2S(=O)(=O)/N=C(\O)NC(C)C)c1

$$$$

     RDKit          3D

 20 22  0  0  0  0  0  0  0  0999 V2000
    3.5927    2.7634    1.2315 C   0  0  0  0  0  0  0  0  0  0  0  0
    4.1800    1.5644    0.6689 N   0  0  0  0  0  0  0  0  0  0  0  0
    5.6260    1.7003    0.5029 C   0  0  0  0  0  0  0  0  0  0  0  0
    3.8742    0.4603    1.5547 C   0  0  0  0  0  0  0  0  0  0  0  0
    2.4028    0.1339    1.5479 C   0  0  0  0  0  0  0  0  0  0  0  0
    1.9929   -0.2347    0.1699 C   0  0  0  0  0  0  0  0  0  0  0  0
    2.7613   -0.2069   -0.9882 C   0  0  0  0  0  0  0  0  0  0  0  0
    2.0190   -0.6069   -2.0288 N   0  0  0  0  0  0  0  0  0  0  0  0
    0.7736   -0.9028   -1.5988 C   0  0  0  0  0  0  0  0  0  0  0  0
   -0.3607   -1.3608   -2.2769 C   0  0  0  0  0  0  0  0  0  0  0  0
   -1.4876   -1.5680   -1.5222 C   0  0  0  0  0  0  0  0  0  0  0  0
   -1.5558   -1.3532   -0.1656 C   0  0  0  0  0  0  0  0  0  0  0  0
   -2.8377   -1.6155    0.5692 C   0  0  0  0  0  0  0  0  0  0  0  0
   -3.6334   -0.3786    0.6030 N   0  0  0  0  0  0  0  0  0  0  0  0
   -3.6194    0.5760    1.5215 C   0  0  0  0  0  0  0  0  0  0  0  0
   -4.4980    1.5193    1.1462 N   0  0  0  0  0  0  0  0  0  0  0  0
   -5.0509    1.1325   -0.0124 C   0  0  0  0  0  0  0  0  0  0  0  0
   -4.5009   -0.0422   -0.3263 N   0  0  0  0  0  0  0  0  0  0  0  0
   -0.4234   -0.9036    0.4708 C   0  0  0  0  0  0  0  0  0  0  0  0
    0.7451   -0.6768   -0.2426 C   0  0  0  0  0  0  0  0  0  0  0  0
  1  2  1  0
  2  3  1  0
  2  4  1  0
  4  5  1  0
  5  6  1  0
  6  7  2  0
  7  8  1  0
  8  9  1  0
  9 10  2  0
 10 11  1  0
 11 12  2  0
 12 13  1  0
 13 14  1  0
 14 15  1  0
 15 16  2  0
 16 17  1  0
 17 18  2  0
 12 19  1  0
 19 20  2  0
 20  6  1  0
 20  9  1  0
 18 14  1  0
M  END
>  <zinc_id>  (32) 
ZINC000000005895

>  <smiles>  (32) 
CN(C)CCc1c[nH]c2ccc(Cn3cncn3)cc12

$$$$

     RDKit          3D

 20 21  0  0  0  0  0  0  0  0999 V2000
    5.1529   -2.1372   -0.8382 C   0  0  0  0  0  0  0  0  0  0  0  0
    4.4763   -1.8598   -0.7110 O   0  0  0  0  0  0  0  0  0  0  0  0
    3.2926   -1.1774   -0.4211 C   0  0  0  0  0  0  0  0  0  0  0  0
    3.3460    0.1130    0.0177 C   0  0  0  0  0  0  0  0  0  0  0  0
    2.1957    0.8090    0.3106 C   0  0  0  0  0  0  0  0  0  0  0  0
    0.9791    0.1874    0.1560 C   0  0  0  0  0  0  0  0  0  0  0  0
   -0.3087    1.0455    0.5104 C   0  0  1  0  0  0  0  0  0  0  0  0
   -0.4539    1.6701   -1.0046 C   0  0  0  0  0  0  0  0  0  0  0  0
   -1.6152    2.5199   -0.8388 N   0  0  0  0  0  0  0  0  0  0  0  0
   -1.9780    3.2001   -2.0627 C   0  0  0  0  0  0  0  0  0  0  0  0
   -1.2912    3.5620    0.1548 C   0  0  0  0  0  0  0  0  0  0  0  0
   -1.4358   -0.0995    0.2889 C   0  0  0  0  0  0  0  0  0  0  0  0
   -1.4322   -0.5548   -0.9681 O   0  0  0  0  0  0  0  0  0  0  0  0
   -2.7733    0.6312    0.5158 C   0  0  0  0  0  0  0  0  0  0  0  0
   -3.8109   -0.4216    0.1176 C   0  0  0  0  0  0  0  0  0  0  0  0
   -3.7136   -1.4739    1.2038 C   0  0  0  0  0  0  0  0  0  0  0  0
   -2.3684   -2.0588    1.3679 C   0  0  0  0  0  0  0  0  0  0  0  0
   -1.2282   -1.1133    1.3773 C   0  0  0  0  0  0  0  0  0  0  0  0
    0.9037   -1.0756   -0.2725 C   0  0  0  0  0  0  0  0  0  0  0  0
    2.0632   -1.7663   -0.5640 C   0  0  0  0  0  0  0  0  0  0  0  0
  1  2  1  0
  2  3  1  0
  3  4  2  0
  4  5  1  0
  5  6  2  0
  6  7  1  0
  7  8  1  6
  8  9  1  0
  9 10  1  0
  9 11  1  0
  7 12  1  0
 12 13  1  0
 12 14  1  0
 14 15  1  0
 15 16  1  0
 16 17  1  0
 17 18  1  0
  6 19  1  0
 19 20  2  0
 20  3  1  0
 18 12  1  0
M  END
>  <zinc_id>  (33) 
ZINC000000006016

>  <smiles>  (33) 
COc1ccc([C@@H](CN(C)C)C2(O)CCCCC2)cc1

$$$$

     RDKit          3D

 27 29  0  0  0  0  0  0  0  0999 V2000
    6.9240   -0.3438   -0.8785 O   0  0  0  0  0  0  0  0  0  0  0  0
    6.7713    0.1495    0.1910 C   0  0  0  0  0  0  0  0  0  0  0  0
    6.9275   -0.5829    1.3592 O   0  0  0  0  0  0  0  0  0  0  0  0
    6.4036    1.5865    0.2887 C   0  0  0  0  0  0  0  0  0  0  0  0
    4.9459    1.7046   -0.0358 C   0  0  0  0  0  0  0  0  0  0  0  0
    4.0872    0.8903    0.9397 C   0  0  0  0  0  0  0  0  0  0  0  0
    2.7438    1.0708    0.5462 N   0  0  0  0  0  0  0  0  0  0  0  0
    2.3682    0.4897   -0.7042 C   0  0  0  0  0  0  0  0  0  0  0  0
    0.9896    0.9307   -1.1171 C   0  0  0  0  0  0  0  0  0  0  0  0
    0.0057    0.4182   -0.1144 C   0  0  0  0  0  0  0  0  0  0  0  0
   -0.5375   -0.8316   -0.4953 O   0  0  0  0  0  0  0  0  0  0  0  0
   -1.4503   -1.0342    0.6954 C   0  0  1  0  0  0  0  0  0  0  0  0
   -2.3220    0.2425    0.4885 C   0  0  0  0  0  0  0  0  0  0  0  0
   -2.6062    0.9774    1.6048 C   0  0  0  0  0  0  0  0  0  0  0  0
   -3.3890    2.1514    1.4983 C   0  0  0  0  0  0  0  0  0  0  0  0
   -3.8494    2.5329    0.2775 C   0  0  0  0  0  0  0  0  0  0  0  0
   -4.8151    3.9895    0.1760 Cl  0  0  0  0  0  0  0  0  0  0  0  0
   -3.5685    1.7999   -0.8515 C   0  0  0  0  0  0  0  0  0  0  0  0
   -2.7963    0.6527   -0.7042 C   0  0  0  0  0  0  0  0  0  0  0  0
   -2.4074   -2.0812   -0.0256 C   0  0  0  0  0  0  0  0  0  0  0  0
   -2.7367   -3.1681    0.7471 C   0  0  0  0  0  0  0  0  0  0  0  0
   -3.5739   -4.1488    0.1963 C   0  0  0  0  0  0  0  0  0  0  0  0
   -4.0001   -3.9313   -1.0957 C   0  0  0  0  0  0  0  0  0  0  0  0
   -3.6375   -2.8229   -1.8219 C   0  0  0  0  0  0  0  0  0  0  0  0
   -2.8358   -1.9269   -1.2336 N   0  0  0  0  0  0  0  0  0  0  0  0
    0.5967    0.2110    1.2547 C   0  0  0  0  0  0  0  0  0  0  0  0
    1.7623    1.0740    1.5572 C   0  0  0  0  0  0  0  0  0  0  0  0
  1  2  2  0
  2  3  1  0
  2  4  1  0
  4  5  1  0
  5  6  1  0
  6  7  1  0
  7  8  1  0
  8  9  1  0
  9 10  1  0
 10 11  1  0
 12 11  1  6
 12 13  1  0
 13 14  2  0
 14 15  1  0
 15 16  2  0
 16 17  1  0
 16 18  1  0
 18 19  2  0
 12 20  1  0
 20 21  2  0
 21 22  1  0
 22 23  2  0
 23 24  1  0
 24 25  2  0
 10 26  1  0
 26 27  1  0
 27  7  1  0
 19 13  1  0
 25 20  1  0
M  END
>  <zinc_id>  (34) 
ZINC000000602128

>  <smiles>  (34) 
O=C(O)CCCN1CCC(O[C@@H](c2ccc(Cl)cc2)c2ccccn2)CC1

$$$$

     RDKit          3D

 27 29  0  0  0  0  0  0  0  0999 V2000
   -2.2682    4.8987    0.5462 C   0  0  0  0  0  0  0  0  0  0  0  0
   -1.4689    4.0675    0.0741 O   0  0  0  0  0  0  0  0  0  0  0  0
   -1.1527    2.7950    0.5076 C   0  0  0  0  0  0  0  0  0  0  0  0
   -1.8377    2.6004    1.4967 O   0  0  0  0  0  0  0  0  0  0  0  0
   -0.1637    1.9576   -0.1846 C   0  0  0  0  0  0  0  0  0  0  0  0
    0.3835    2.4317   -1.2350 C   0  0  0  0  0  0  0  0  0  0  0  0
   -0.0655    3.8364   -1.6536 C   0  0  0  0  0  0  0  0  0  0  0  0
    1.4159    1.8545   -2.0384 N   0  0  0  0  0  0  0  0  0  0  0  0
    1.8072    0.5831   -1.5060 C   0  0  0  0  0  0  0  0  0  0  0  0
    2.9108   -0.0519   -2.3882 C   0  0  0  0  0  0  0  0  0  0  0  0
    1.3164   -0.0145   -0.4449 C   0  0  0  0  0  0  0  0  0  0  0  0
    2.0063   -1.2265   -0.2692 C   0  0  0  0  0  0  0  0  0  0  0  0
    1.4702   -1.8885    0.6673 O   0  0  0  0  0  0  0  0  0  0  0  0
    3.0767   -1.8513   -0.8306 O   0  0  0  0  0  0  0  0  0  0  0  0
    3.3121   -3.2097   -0.2766 C   0  0  0  0  0  0  0  0  0  0  0  0
    4.0985   -3.0504    1.0628 C   0  0  0  0  0  0  0  0  0  0  0  0
    4.5541   -3.6802   -1.1892 C   0  0  0  0  0  0  0  0  0  0  0  0
    0.2264    0.6264    0.2874 C   0  0  2  0  0  0  0  0  0  0  0  0
   -1.1112   -0.2177    0.2953 C   0  0  0  0  0  0  0  0  0  0  0  0
   -1.6393   -0.0793   -0.9810 C   0  0  0  0  0  0  0  0  0  0  0  0
   -2.8195   -0.7995   -1.3107 C   0  0  0  0  0  0  0  0  0  0  0  0
   -3.3532   -1.5764   -0.3177 C   0  0  0  0  0  0  0  0  0  0  0  0
   -2.7588   -1.6647    0.9538 C   0  0  0  0  0  0  0  0  0  0  0  0
   -2.9839   -2.2777    2.1202 N   0  0  0  0  0  0  0  0  0  0  0  0
   -2.0673   -1.9563    2.9991 O   0  0  0  0  0  0  0  0  0  0  0  0
   -1.2604   -1.1509    2.4142 N   0  0  0  0  0  0  0  0  0  0  0  0
   -1.6276   -0.9556    1.2008 C   0  0  0  0  0  0  0  0  0  0  0  0
  1  2  1  0
  2  3  1  0
  3  4  2  0
  3  5  1  0
  5  6  2  0
  6  7  1  0
  6  8  1  0
  8  9  1  0
  9 10  1  0
  9 11  2  0
 11 12  1  0
 12 13  2  0
 12 14  1  0
 14 15  1  0
 15 16  1  0
 15 17  1  0
 11 18  1  0
 18 19  1  1
 19 20  2  0
 20 21  1  0
 21 22  2  0
 22 23  1  0
 23 24  2  0
 24 25  1  0
 25 26  1  0
 26 27  2  0
 18  5  1  0
 27 19  1  0
 27 23  1  0
M  END
>  <zinc_id>  (35) 
ZINC000000607939

>  <smiles>  (35) 
COC(=O)C1=C(C)NC(C)=C(C(=O)OC(C)C)[C@H]1c1cccc2nonc12

$$$$

     RDKit          3D

 29 32  0  0  0  0  0  0  0  0999 V2000
   -5.4522   -0.1804   -0.9696 C   0  0  0  0  0  0  0  0  0  0  0  0
   -3.9856   -0.0039   -1.1804 C   0  0  0  0  0  0  0  0  0  0  0  0
   -3.4985    0.3337   -2.4088 C   0  0  0  0  0  0  0  0  0  0  0  0
   -4.2846    0.4960   -3.3622 O   0  0  0  0  0  0  0  0  0  0  0  0
   -2.1300    0.4925   -2.5811 C   0  0  0  0  0  0  0  0  0  0  0  0
   -1.5952    0.8329   -3.8039 C   0  0  0  0  0  0  0  0  0  0  0  0
   -0.2286    0.9759   -3.9113 C   0  0  0  0  0  0  0  0  0  0  0  0
    0.6054    0.7827   -2.8123 C   0  0  0  0  0  0  0  0  0  0  0  0
    0.0846    0.4418   -1.5823 C   0  0  0  0  0  0  0  0  0  0  0  0
    0.9211    0.2304   -0.4069 C   0  0  0  0  0  0  0  0  0  0  0  0
    0.4336   -0.0786    0.7031 O   0  0  0  0  0  0  0  0  0  0  0  0
    2.3071    0.3618   -0.4596 O   0  0  0  0  0  0  0  0  0  0  0  0
    3.1369    0.1602    0.6723 C   0  0  0  0  0  0  0  0  0  0  0  0
    4.5618    0.3926    0.2135 C   0  0  0  0  0  0  0  0  0  0  0  0
    5.5022    0.2066    1.3200 N   0  0  0  0  0  0  0  0  0  0  0  0
    6.8382    0.4434    0.8111 C   0  0  0  0  0  0  0  0  0  0  0  0
    7.8928    0.1589    1.8319 C   0  0  0  0  0  0  0  0  0  0  0  0
    7.8202   -1.3070    2.2387 C   0  0  0  0  0  0  0  0  0  0  0  0
    6.7176   -1.9313    1.4063 C   0  0  0  0  0  0  0  0  0  0  0  0
    5.4262   -1.2244    1.6518 C   0  0  0  0  0  0  0  0  0  0  0  0
   -1.2816    0.3026   -1.4905 C   0  0  0  0  0  0  0  0  0  0  0  0
   -1.7999   -0.0226   -0.3246 O   0  0  0  0  0  0  0  0  0  0  0  0
   -3.0890   -0.1804   -0.1283 C   0  0  0  0  0  0  0  0  0  0  0  0
   -3.6158   -0.5416    1.1838 C   0  0  0  0  0  0  0  0  0  0  0  0
   -4.9699   -0.7032    1.3731 C   0  0  0  0  0  0  0  0  0  0  0  0
   -5.5154   -1.0411    2.5817 C   0  0  0  0  0  0  0  0  0  0  0  0
   -4.6862   -1.2351    3.6821 C   0  0  0  0  0  0  0  0  0  0  0  0
   -3.3228   -1.0717    3.4888 C   0  0  0  0  0  0  0  0  0  0  0  0
   -2.7924   -0.7311    2.2634 C   0  0  0  0  0  0  0  0  0  0  0  0
  1  2  1  0
  2  3  1  0
  3  4  2  0
  3  5  1  0
  5  6  2  0
  6  7  1  0
  7  8  2  0
  8  9  1  0
  9 10  1  0
 10 11  2  0
 10 12  1  0
 12 13  1  0
 13 14  1  0
 14 15  1  0
 15 16  1  0
 16 17  1  0
 17 18  1  0
 18 19  1  0
 19 20  1  0
  9 21  2  0
 21 22  1  0
 22 23  1  0
 23 24  1  0
 24 25  2  0
 25 26  1  0
 26 27  2  0
 27 28  1  0
 28 29  2  0
 23  2  2  0
 29 24  1  0
 21  5  1  0
 20 15  1  0
M  END
>  <zinc_id>  (36) 
ZINC000000608382

>  <smiles>  (36) 
Cc1c(-c2ccccc2)oc2c(C(=O)OCCN3CCCCC3)cccc2c1=O

$$$$

     RDKit          3D

 23 25  0  0  0  0  0  0  0  0999 V2000
    7.5574    0.0244   -1.0845 O   0  0  0  0  0  0  0  0  0  0  0  0
    6.4646    0.5215   -0.7045 C   0  0  0  0  0  0  0  0  0  0  0  0
    5.3630   -0.1491    0.0635 C   0  0  0  0  0  0  0  0  0  0  0  0
    4.2308    0.6838   -0.2567 N   0  0  0  0  0  0  0  0  0  0  0  0
    2.8781    0.3221   -0.1840 N   0  0  0  0  0  0  0  0  0  0  0  0
    2.4601   -0.8743   -0.1099 C   0  0  0  0  0  0  0  0  0  0  0  0
    1.0528   -1.2587   -0.0339 C   0  0  0  0  0  0  0  0  0  0  0  0
    0.6332   -2.5735    0.0459 C   0  0  0  0  0  0  0  0  0  0  0  0
   -0.7556   -2.5516    0.1018 C   0  0  0  0  0  0  0  0  0  0  0  0
   -1.1046   -1.2326    0.0533 C   0  0  0  0  0  0  0  0  0  0  0  0
   -2.4816   -0.7231    0.0856 C   0  0  0  0  0  0  0  0  0  0  0  0
   -2.7697    0.6163    0.0336 C   0  0  0  0  0  0  0  0  0  0  0  0
   -4.0822    1.0472    0.0670 C   0  0  0  0  0  0  0  0  0  0  0  0
   -5.1323    0.1573    0.1524 C   0  0  0  0  0  0  0  0  0  0  0  0
   -6.4582    0.6549    0.1831 N   0  0  0  0  0  0  0  0  0  0  0  0
   -7.3899   -0.1547    0.2599 O   0  0  0  0  0  0  0  0  0  0  0  0
   -6.7269    1.9839    0.1309 O   0  0  0  0  0  0  0  0  0  0  0  0
   -4.8490   -1.1884    0.2048 C   0  0  0  0  0  0  0  0  0  0  0  0
   -3.5538   -1.5930    0.1710 C   0  0  0  0  0  0  0  0  0  0  0  0
   -0.0224   -0.5354   -0.0242 O   0  0  0  0  0  0  0  0  0  0  0  0
    4.6869    1.9631   -0.6695 C   0  0  0  0  0  0  0  0  0  0  0  0
    3.9381    2.9952   -0.7587 O   0  0  0  0  0  0  0  0  0  0  0  0
    6.0612    1.8647   -0.9455 N   0  0  0  0  0  0  0  0  0  0  0  0
  1  2  2  0
  2  3  1  0
  3  4  1  0
  4  5  1  0
  5  6  2  0
  6  7  1  0
  7  8  2  0
  8  9  1  0
  9 10  2  0
 10 11  1  0
 11 12  2  0
 12 13  1  0
 13 14  2  0
 14 15  1  0
 15 16  2  0
 15 17  1  0
 14 18  1  0
 18 19  2  0
 10 20  1  0
  4 21  1  0
 21 22  2  0
 21 23  1  0
 23  2  1  0
 20  7  1  0
 19 11  1  0
M  CHG  2  15   1  17  -1
M  END
>  <zinc_id>  (37) 
ZINC000002568036

>  <smiles>  (37) 
O=C1CN(/N=C/c2ccc(-c3ccc([N+](=O)[O-])cc3)o2)C(=O)N1

$$$$

     RDKit          3D

 20 21  0  0  0  0  0  0  0  0999 V2000
   -1.9419   -0.7172   -1.8932 N   0  0  0  0  0  0  0  0  0  0  0  0
   -1.5085   -0.7742   -0.5505 C   0  0  0  0  0  0  0  0  0  0  0  0
   -2.3885   -1.2151    0.4099 C   0  0  0  0  0  0  0  0  0  0  0  0
   -3.7728   -1.5951    0.0154 C   0  0  0  0  0  0  0  0  0  0  0  0
   -4.5558   -0.3512   -0.2799 C   0  0  0  0  0  0  0  0  0  0  0  0
   -5.3918   -0.3995   -1.2002 O   0  0  0  0  0  0  0  0  0  0  0  0
   -4.3103    0.7787    0.4731 O   0  0  0  0  0  0  0  0  0  0  0  0
   -2.0341   -1.2954    1.7704 C   0  0  0  0  0  0  0  0  0  0  0  0
   -0.7682   -0.9171    2.1392 C   0  0  0  0  0  0  0  0  0  0  0  0
    0.0898   -0.4850    1.1829 C   0  0  0  0  0  0  0  0  0  0  0  0
   -0.2563   -0.4097   -0.1439 C   0  0  0  0  0  0  0  0  0  0  0  0
    0.7562    0.0364   -1.1315 C   0  0  0  0  0  0  0  0  0  0  0  0
    0.4816    0.0271   -2.3116 O   0  0  0  0  0  0  0  0  0  0  0  0
    2.0641    0.4601   -0.5664 C   0  0  0  0  0  0  0  0  0  0  0  0
    3.2658    0.2884   -1.1933 C   0  0  0  0  0  0  0  0  0  0  0  0
    4.4347    0.7284   -0.5683 C   0  0  0  0  0  0  0  0  0  0  0  0
    4.4610    1.3393    0.6638 C   0  0  0  0  0  0  0  0  0  0  0  0
    6.0584    1.9202    1.5177 Br  0  0  0  0  0  0  0  0  0  0  0  0
    3.2204    1.5085    1.2854 C   0  0  0  0  0  0  0  0  0  0  0  0
    2.0964    1.0724    0.6641 C   0  0  0  0  0  0  0  0  0  0  0  0
  1  2  1  0
  2  3  2  0
  3  4  1  0
  4  5  1  0
  5  6  2  0
  5  7  1  0
  3  8  1  0
  8  9  2  0
  9 10  1  0
 10 11  2  0
 11 12  1  0
 12 13  2  0
 12 14  1  0
 14 15  2  0
 15 16  1  0
 16 17  2  0
 17 18  1  0
 17 19  1  0
 19 20  2  0
 11  2  1  0
 20 14  1  0
M  END
>  <zinc_id>  (38) 
ZINC000002570817

>  <smiles>  (38) 
Nc1c(CC(=O)O)cccc1C(=O)c1ccc(Br)cc1

$$$$

     RDKit          3D

 25 26  0  0  0  0  0  0  0  0999 V2000
   -8.2436    0.0174   -0.2866 C   0  0  0  0  0  0  0  0  0  0  0  0
   -7.7654    0.0561   -0.1413 O   0  0  0  0  0  0  0  0  0  0  0  0
   -6.4356   -0.0399    0.3259 C   0  0  0  0  0  0  0  0  0  0  0  0
   -5.6793    1.0979    0.2211 C   0  0  0  0  0  0  0  0  0  0  0  0
   -4.3887    1.0371    0.6650 C   0  0  0  0  0  0  0  0  0  0  0  0
   -3.8213   -0.1244    1.2130 C   0  0  0  0  0  0  0  0  0  0  0  0
   -2.4364    0.0033    1.6368 C   0  0  0  0  0  0  0  0  0  0  0  0
   -1.4556   -0.3870    0.3633 C   0  0  1  0  0  0  0  0  0  0  0  0
   -2.0338    0.8033   -0.6392 C   0  0  0  0  0  0  0  0  0  0  0  0
   -0.2907    0.5753    0.9125 N   0  0  0  0  0  0  0  0  0  0  0  0
    0.7079    0.6626   -0.0508 C   0  0  0  0  0  0  0  0  0  0  0  0
    1.4683   -0.8176   -0.1723 C   0  0  2  0  0  0  0  0  0  0  0  0
    1.8911   -0.7380    1.3324 O   0  0  0  0  0  0  0  0  0  0  0  0
    2.8337   -0.1799   -0.7313 C   0  0  0  0  0  0  0  0  0  0  0  0
    2.7588    0.7349   -1.7250 C   0  0  0  0  0  0  0  0  0  0  0  0
    3.9180    1.2955   -2.2291 C   0  0  0  0  0  0  0  0  0  0  0  0
    5.1381    0.9157   -1.7128 C   0  0  0  0  0  0  0  0  0  0  0  0
    6.3219    1.4776   -2.2164 O   0  0  0  0  0  0  0  0  0  0  0  0
    5.1800   -0.0255   -0.6932 C   0  0  0  0  0  0  0  0  0  0  0  0
    6.4587   -0.3859   -0.1892 N   0  0  0  0  0  0  0  0  0  0  0  0
    6.6875   -1.3226    0.8279 C   0  0  0  0  0  0  0  0  0  0  0  0
    5.6892   -1.8974    1.3419 O   0  0  0  0  0  0  0  0  0  0  0  0
    4.0095   -0.5675   -0.2105 C   0  0  0  0  0  0  0  0  0  0  0  0
   -4.5986   -1.2382    1.3031 C   0  0  0  0  0  0  0  0  0  0  0  0
   -5.9138   -1.1884    0.8548 C   0  0  0  0  0  0  0  0  0  0  0  0
  1  2  1  0
  2  3  1  0
  3  4  2  0
  4  5  1  0
  5  6  2  0
  6  7  1  0
  7  8  1  0
  8  9  1  6
  8 10  1  0
 10 11  1  0
 11 12  1  0
 12 13  1  1
 12 14  1  0
 14 15  2  0
 15 16  1  0
 16 17  2  0
 17 18  1  0
 17 19  1  0
 19 20  1  0
 20 21  1  0
 21 22  2  0
 19 23  2  0
  6 24  1  0
 24 25  2  0
 25  3  1  0
 23 14  1  0
M  END
>  <zinc_id>  (39) 
ZINC000002599970

>  <smiles>  (39) 
COc1ccc(C[C@@H](C)NC[C@H](O)c2ccc(O)c(NC=O)c2)cc1

$$$$

     RDKit          3D

 21 22  0  0  0  0  0  0  0  0999 V2000
   -1.2070   -0.5720    3.5843 C   0  0  0  0  0  0  0  0  0  0  0  0
   -2.0184   -0.2387    2.3878 C   0  0  0  0  0  0  0  0  0  0  0  0
   -2.8871   -1.0276    1.9442 O   0  0  0  0  0  0  0  0  0  0  0  0
   -1.8453    0.9732    1.7056 O   0  0  0  0  0  0  0  0  0  0  0  0
   -2.6399    1.2237    0.5893 C   0  0  0  0  0  0  0  0  0  0  0  0
   -3.9230    1.7089    0.7239 C   0  0  0  0  0  0  0  0  0  0  0  0
   -4.7418    1.9701   -0.3450 C   0  0  0  0  0  0  0  0  0  0  0  0
   -4.2666    1.7395   -1.6112 C   0  0  0  0  0  0  0  0  0  0  0  0
   -2.9937    1.2569   -1.7798 C   0  0  0  0  0  0  0  0  0  0  0  0
   -2.1930    1.0035   -0.6917 C   0  0  0  0  0  0  0  0  0  0  0  0
   -0.8410    0.5009   -0.9607 C   0  0  0  0  0  0  0  0  0  0  0  0
   -0.4385    0.2973   -2.1434 O   0  0  0  0  0  0  0  0  0  0  0  0
    0.1060    0.2076    0.0539 N   0  0  0  0  0  0  0  0  0  0  0  0
    1.4185   -0.2846   -0.2948 C   0  0  0  0  0  0  0  0  0  0  0  0
    1.9500   -0.5345   -1.4699 N   0  0  0  0  0  0  0  0  0  0  0  0
    3.1652   -0.9783   -1.5477 C   0  0  0  0  0  0  0  0  0  0  0  0
    3.8592   -1.1728   -0.3882 C   0  0  0  0  0  0  0  0  0  0  0  0
    5.1898   -1.6448   -0.1907 N   0  0  0  0  0  0  0  0  0  0  0  0
    5.6651   -1.7610    0.9528 O   0  0  0  0  0  0  0  0  0  0  0  0
    5.9468   -1.9724   -1.2854 O   0  0  0  0  0  0  0  0  0  0  0  0
    2.6946   -0.6947    0.7667 S   0  0  0  0  0  0  0  0  0  0  0  0
  1  2  1  0
  2  3  2  0
  2  4  1  0
  4  5  1  0
  5  6  2  0
  6  7  1  0
  7  8  2  0
  8  9  1  0
  9 10  2  0
 10 11  1  0
 11 12  2  0
 11 13  1  0
 13 14  1  0
 14 15  2  0
 15 16  1  0
 16 17  2  0
 17 18  1  0
 18 19  2  0
 18 20  1  0
 17 21  1  0
 10  5  1  0
 21 14  1  0
M  CHG  2  18   1  20  -1
M  END
>  <zinc_id>  (40) 
ZINC000003956788

>  <smiles>  (40) 
CC(=O)Oc1ccccc1C(=O)Nc1ncc([N+](=O)[O-])s1

$$$$

     RDKit          3D

 24 27  0  0  0  0  0  0  0  0999 V2000
   -2.8389    3.0200    0.6400 C   0  0  0  0  0  0  0  0  0  0  0  0
   -2.9580    2.0112    0.5320 C   0  0  0  0  0  0  0  0  0  0  0  0
   -3.1618    0.5190    0.3766 C   0  0  2  0  0  0  0  0  0  0  0  0
   -4.5045    0.2834    0.0605 O   0  0  0  0  0  0  0  0  0  0  0  0
   -2.9782   -0.1535    1.7044 C   0  0  0  0  0  0  0  0  0  0  0  0
   -2.5561   -1.4822    1.4096 C   0  0  0  0  0  0  0  0  0  0  0  0
   -1.8005   -1.4811   -0.0086 C   0  0  2  0  0  0  0  0  0  0  0  0
   -0.2710   -1.3124    0.6680 C   0  0  2  0  0  0  0  0  0  0  0  0
   -0.3275    0.1244    1.3113 C   0  0  0  0  0  0  0  0  0  0  0  0
    1.0434    0.4985    1.6005 C   0  0  0  0  0  0  0  0  0  0  0  0
    2.0755   -0.0120    0.7619 C   0  0  0  0  0  0  0  0  0  0  0  0
    3.2924    0.5309    0.8131 C   0  0  0  0  0  0  0  0  0  0  0  0
    4.4033    0.0922    0.0118 C   0  0  0  0  0  0  0  0  0  0  0  0
    5.6414    0.2399    0.3361 N   0  0  0  0  0  0  0  0  0  0  0  0
    5.9000    0.8642    1.5384 O   0  0  0  0  0  0  0  0  0  0  0  0
    4.0863   -0.5826   -1.2891 C   0  0  0  0  0  0  0  0  0  0  0  0
    2.5827   -0.3756   -1.5263 C   0  0  0  0  0  0  0  0  0  0  0  0
    1.9717   -1.1839   -0.2398 C   0  0  2  0  0  0  0  0  0  0  0  0
    0.4125   -1.0615   -0.8264 C   0  0  2  0  0  0  0  0  0  0  0  0
    0.2620    0.5012   -1.0533 C   0  0  0  0  0  0  0  0  0  0  0  0
   -1.1580    0.7338   -1.1667 C   0  0  0  0  0  0  0  0  0  0  0  0
   -2.1737   -0.0205   -0.5043 C   0  0  2  0  0  0  0  0  0  0  0  0
   -2.9443   -0.3854   -1.7994 C   0  0  0  0  0  0  0  0  0  0  0  0
   -3.9987   -1.3682   -1.6693 C   0  0  0  0  0  0  0  0  0  0  0  0
  1  2  3  0
  2  3  1  0
  3  4  1  6
  3  5  1  0
  5  6  1  0
  7  6  1  1
  7  8  1  0
  8  9  1  1
  9 10  1  0
 10 11  1  0
 11 12  2  0
 12 13  1  0
 13 14  2  3
 14 15  1  0
 13 16  1  0
 16 17  1  0
 18 17  1  6
 18 19  1  0
 19 20  1  1
 20 21  1  0
 21 22  1  0
 22 23  1  6
 23 24  1  0
 22  3  1  0
 22  7  1  0
 19  8  1  0
 18 11  1  0
M  END
>  <zinc_id>  (41) 
ZINC000256433955

>  <smiles>  (41) 
C#C[C@]1(O)CC[C@@H]2[C@@H]3CCC4=CC(=NO)CC[C@@H]4[C@@H]3CC[C@@]21CC

$$$$

     RDKit          3D

 37 41  0  0  0  0  0  0  0  0999 V2000
   -6.8001    0.1821    0.0002 C   0  0  0  0  0  0  0  0  0  0  0  0
   -6.2139    0.2932    0.9032 C   0  0  0  0  0  0  0  0  0  0  0  0
   -6.6775    0.9280    2.0291 N   0  0  0  0  0  0  0  0  0  0  0  0
   -5.7463    0.9248    3.0061 N   0  0  0  0  0  0  0  0  0  0  0  0
   -4.6661    0.2849    2.5213 C   0  0  0  0  0  0  0  0  0  0  0  0
   -3.3667    0.0018    3.1800 C   0  0  0  0  0  0  0  0  0  0  0  0
   -3.0285    1.1132    4.1919 C   0  0  0  0  0  0  0  0  0  0  0  0
   -3.6016   -1.2320    4.0591 C   0  0  0  0  0  0  0  0  0  0  0  0
   -4.9571   -0.0824    1.2784 N   0  0  0  0  0  0  0  0  0  0  0  0
   -4.0644   -0.8743    0.2869 C   0  0  2  0  0  0  0  0  0  0  0  0
   -2.6421   -0.5562    0.9602 C   0  0  0  0  0  0  0  0  0  0  0  0
   -1.5367   -0.6622   -0.2243 C   0  0  1  0  0  0  0  0  0  0  0  0
   -2.3877   -1.4535   -1.3473 C   0  0  0  0  0  0  0  0  0  0  0  0
   -2.3854   -0.5883   -2.4360 C   0  0  0  0  0  0  0  0  0  0  0  0
   -2.9427    0.7512   -1.6658 C   0  0  1  0  0  0  0  0  0  0  0  0
   -4.2047    0.1848   -0.8691 C   0  0  0  0  0  0  0  0  0  0  0  0
   -1.8599    0.7786   -0.5800 N   0  0  0  0  0  0  0  0  0  0  0  0
   -0.8106    1.5851   -0.8301 C   0  0  0  0  0  0  0  0  0  0  0  0
    0.0692    1.4729   -1.9785 C   0  0  0  0  0  0  0  0  0  0  0  0
    0.8290    0.0254   -1.9848 C   0  0  2  0  0  0  0  0  0  0  0  0
    1.5273    0.2636   -0.6025 N   0  0  0  0  0  0  0  0  0  0  0  0
    2.5469   -0.6978   -0.3658 C   0  0  0  0  0  0  0  0  0  0  0  0
    2.8326   -1.6237   -1.1904 O   0  0  0  0  0  0  0  0  0  0  0  0
    3.3563   -0.6597    0.9083 C   0  0  0  0  0  0  0  0  0  0  0  0
    4.3852   -1.7350    0.9337 C   0  0  0  0  0  0  0  0  0  0  0  0
    5.2811   -1.6791    2.1466 C   0  0  0  0  0  0  0  0  0  0  0  0
    5.9929   -0.3287    2.0835 C   0  0  0  0  0  0  0  0  0  0  0  0
    6.6784   -0.1738    0.8969 F   0  0  0  0  0  0  0  0  0  0  0  0
    6.8604   -0.2555    3.1338 F   0  0  0  0  0  0  0  0  0  0  0  0
    4.8923    0.7085    2.2542 C   0  0  0  0  0  0  0  0  0  0  0  0
    3.9458    0.7047    1.0877 C   0  0  0  0  0  0  0  0  0  0  0  0
    2.0850    0.5195   -2.8483 C   0  0  0  0  0  0  0  0  0  0  0  0
    2.7508    1.6133   -2.5347 C   0  0  0  0  0  0  0  0  0  0  0  0
    3.8299    1.9991   -3.3221 C   0  0  0  0  0  0  0  0  0  0  0  0
    4.1668    1.2131   -4.4150 C   0  0  0  0  0  0  0  0  0  0  0  0
    3.4614    0.0687   -4.7337 C   0  0  0  0  0  0  0  0  0  0  0  0
    2.4006   -0.2815   -3.9327 C   0  0  0  0  0  0  0  0  0  0  0  0
  1  2  1  0
  2  3  2  0
  3  4  1  0
  4  5  2  0
  5  6  1  0
  6  7  1  0
  6  8  1  0
  5  9  1  0
 10  9  1  1
 10 11  1  0
 12 11  1  1
 12 13  1  0
 13 14  1  0
 15 14  1  6
 15 16  1  0
 15 17  1  0
 17 18  1  0
 18 19  1  0
 20 19  1  1
 20 21  1  0
 21 22  1  0
 22 23  2  0
 22 24  1  0
 24 25  1  0
 25 26  1  0
 26 27  1  0
 27 28  1  0
 27 29  1  0
 27 30  1  0
 30 31  1  0
 20 32  1  0
 32 33  2  0
 33 34  1  0
 34 35  2  0
 35 36  1  0
 36 37  2  0
  9  2  1  0
 16 10  1  0
 31 24  1  0
 37 32  1  0
 17 12  1  0
M  END
>  <zinc_id>  (42) 
ZINC000100003902

>  <smiles>  (42) 
Cc1nnc(C(C)C)n1[C@H]1C[C@@H]2CC[C@H](C1)N2CC[C@H](NC(=O)C1CCC(F)(F)CC1)c1ccccc1

$$$$

     RDKit          3D

 24 27  0  0  0  0  0  0  0  0999 V2000
    7.8433    1.1395    0.5946 C   0  0  0  0  0  0  0  0  0  0  0  0
    6.4057    1.1117    0.7819 N   0  0  0  0  0  0  0  0  0  0  0  0
    5.8721    0.1675   -0.1829 C   0  0  0  0  0  0  0  0  0  0  0  0
    4.4008    0.0489   -0.0910 C   0  0  0  0  0  0  0  0  0  0  0  0
    3.5189    0.8285   -0.8027 C   0  0  0  0  0  0  0  0  0  0  0  0
    2.1543    0.6475   -0.6534 C   0  0  0  0  0  0  0  0  0  0  0  0
    1.6190   -0.2984    0.1938 C   0  0  0  0  0  0  0  0  0  0  0  0
    0.1747   -0.4734    0.3369 C   0  0  0  0  0  0  0  0  0  0  0  0
   -0.4724   -1.3372    1.1091 N   0  0  0  0  0  0  0  0  0  0  0  0
   -1.7940   -1.2312    1.0000 C   0  0  0  0  0  0  0  0  0  0  0  0
   -2.8979   -1.8531    1.5505 C   0  0  0  0  0  0  0  0  0  0  0  0
   -4.1835   -1.4910    1.2118 C   0  0  0  0  0  0  0  0  0  0  0  0
   -5.1974   -2.1743    1.8187 F   0  0  0  0  0  0  0  0  0  0  0  0
   -4.4238   -0.4847    0.3018 C   0  0  0  0  0  0  0  0  0  0  0  0
   -3.3391    0.1415   -0.2530 C   0  0  0  0  0  0  0  0  0  0  0  0
   -2.0457   -0.2254    0.0905 C   0  0  0  0  0  0  0  0  0  0  0  0
   -0.8037    0.2468   -0.3223 C   0  0  0  0  0  0  0  0  0  0  0  0
   -0.5454    1.3275   -1.2878 C   0  0  0  0  0  0  0  0  0  0  0  0
   -1.4396    1.2836   -2.5048 C   0  0  0  0  0  0  0  0  0  0  0  0
   -2.7840    1.7872   -2.2028 N   0  0  0  0  0  0  0  0  0  0  0  0
   -3.6514    1.1990   -1.2157 C   0  0  0  0  0  0  0  0  0  0  0  0
   -4.8304    1.6140   -1.1353 O   0  0  0  0  0  0  0  0  0  0  0  0
    2.5259   -1.0649    0.8941 C   0  0  0  0  0  0  0  0  0  0  0  0
    3.8937   -0.9097    0.7680 C   0  0  0  0  0  0  0  0  0  0  0  0
  1  2  1  0
  2  3  1  0
  3  4  1  0
  4  5  2  0
  5  6  1  0
  6  7  2  0
  7  8  1  0
  8  9  1  0
  9 10  1  0
 10 11  2  0
 11 12  1  0
 12 13  1  0
 12 14  2  0
 14 15  1  0
 15 16  2  0
 16 17  1  0
 17 18  1  0
 18 19  1  0
 19 20  1  0
 20 21  1  0
 21 22  2  0
  7 23  1  0
 23 24  2  0
 24  4  1  0
 17  8  2  0
 16 10  1  0
 21 15  1  0
M  END
>  <zinc_id>  (43) 
ZINC000000025958

>  <smiles>  (43) 
CNCc1ccc(-c2[nH]c3cc(F)cc4c3c2CCNC4=O)cc1

$$$$

     RDKit          3D

 29 32  0  0  0  0  0  0  0  0999 V2000
   -1.9196   -1.2442   -1.6568 O   0  0  0  0  0  0  0  0  0  0  0  0
   -1.4230   -0.1865   -0.6768 C   0  0  2  0  0  0  0  0  0  0  0  0
   -0.4944   -1.1964    0.2432 C   0  0  0  0  0  0  0  0  0  0  0  0
    0.4916   -1.7847   -0.5365 N   0  0  0  0  0  0  0  0  0  0  0  0
    1.4471   -0.8825   -0.9759 C   0  0  0  0  0  0  0  0  0  0  0  0
    2.3833   -0.3241    0.2454 C   0  0  2  0  0  0  0  0  0  0  0  0
    1.2806    0.3170    1.0657 O   0  0  0  0  0  0  0  0  0  0  0  0
    2.6832    1.1755   -0.5958 C   0  0  1  0  0  0  0  0  0  0  0  0
    3.6664    1.8255    0.5427 C   0  0  0  0  0  0  0  0  0  0  0  0
    4.3918    0.7750    1.2488 C   0  0  0  0  0  0  0  0  0  0  0  0
    5.1732   -0.0334    0.3229 C   0  0  0  0  0  0  0  0  0  0  0  0
    6.2437   -0.7777    0.7472 C   0  0  0  0  0  0  0  0  0  0  0  0
    7.0020   -1.5467   -0.1060 C   0  0  0  0  0  0  0  0  0  0  0  0
    8.0362   -2.2562    0.3488 F   0  0  0  0  0  0  0  0  0  0  0  0
    6.6399   -1.5437   -1.4370 C   0  0  0  0  0  0  0  0  0  0  0  0
    5.5680   -0.8124   -1.9283 C   0  0  0  0  0  0  0  0  0  0  0  0
    4.8381   -0.0490   -0.9957 C   0  0  0  0  0  0  0  0  0  0  0  0
    3.8097    0.6506   -1.4764 O   0  0  0  0  0  0  0  0  0  0  0  0
   -2.7989   -0.3856    0.3782 C   0  0  1  0  0  0  0  0  0  0  0  0
   -2.6619    1.1928    0.9078 C   0  0  0  0  0  0  0  0  0  0  0  0
   -3.9096    1.3302    1.7305 C   0  0  0  0  0  0  0  0  0  0  0  0
   -5.1430    0.9880    0.9963 C   0  0  0  0  0  0  0  0  0  0  0  0
   -6.4069    1.3164    1.5068 C   0  0  0  0  0  0  0  0  0  0  0  0
   -7.5757    1.0120    0.8473 C   0  0  0  0  0  0  0  0  0  0  0  0
   -8.7664    1.3618    1.4014 F   0  0  0  0  0  0  0  0  0  0  0  0
   -7.4802    0.3580   -0.3623 C   0  0  0  0  0  0  0  0  0  0  0  0
   -6.2320    0.0383   -0.8579 C   0  0  0  0  0  0  0  0  0  0  0  0
   -5.0438    0.3372   -0.2073 C   0  0  0  0  0  0  0  0  0  0  0  0
   -3.7997    0.0094   -0.7202 O   0  0  0  0  0  0  0  0  0  0  0  0
  2  1  1  6
  2  3  1  0
  3  4  1  0
  4  5  1  0
  5  6  1  0
  6  7  1  1
  6  8  1  0
  8  9  1  1
  9 10  1  0
 10 11  1  0
 11 12  2  0
 12 13  1  0
 13 14  1  0
 13 15  2  0
 15 16  1  0
 16 17  2  0
 17 18  1  0
  2 19  1  0
 19 20  1  1
 20 21  1  0
 21 22  1  0
 22 23  2  0
 23 24  1  0
 24 25  1  0
 24 26  2  0
 26 27  1  0
 27 28  2  0
 28 29  1  0
 18  8  1  0
 29 19  1  0
 17 11  1  0
 28 22  1  0
M  END
>  <zinc_id>  (44) 
ZINC000000607986

>  <smiles>  (44) 
O[C@@H](CNC[C@@H](O)[C@H]1CCc2cc(F)ccc2O1)[C@H]1CCc2cc(F)ccc2O1

$$$$

     RDKit          3D

 21 21  0  0  0  0  0  0  0  0999 V2000
    2.9863   -0.8395    2.7540 C   0  0  0  0  0  0  0  0  0  0  0  0
    3.0458   -0.9764    1.3292 N   0  0  0  0  0  0  0  0  0  0  0  0
    3.9920   -0.4097    0.4668 C   0  0  0  0  0  0  0  0  0  0  0  0
    5.2039   -0.9166    0.3286 C   0  0  0  0  0  0  0  0  0  0  0  0
    6.1541   -0.3492   -0.5505 N   0  0  0  0  0  0  0  0  0  0  0  0
    5.8973    0.3001   -1.5587 O   0  0  0  0  0  0  0  0  0  0  0  0
    7.4965   -0.5481   -0.2398 O   0  0  0  0  0  0  0  0  0  0  0  0
    3.6744    0.7505   -0.3187 N   0  0  0  0  0  0  0  0  0  0  0  0
    2.3025    1.0277   -0.6915 C   0  0  0  0  0  0  0  0  0  0  0  0
    1.4155    1.4771    0.4674 C   0  0  0  0  0  0  0  0  0  0  0  0
   -0.2298    1.7247   -0.3870 S   0  0  0  0  0  0  0  0  0  0  0  0
   -0.7767    0.0525   -0.8366 C   0  0  0  0  0  0  0  0  0  0  0  0
   -2.0342   -0.3378   -0.0696 C   0  0  0  0  0  0  0  0  0  0  0  0
   -2.0690   -0.6316    1.2589 C   0  0  0  0  0  0  0  0  0  0  0  0
   -3.7378   -1.0795    1.4597 S   0  0  0  0  0  0  0  0  0  0  0  0
   -4.2516   -0.8602   -0.1493 C   0  0  0  0  0  0  0  0  0  0  0  0
   -5.5968   -1.0660   -0.8174 C   0  0  0  0  0  0  0  0  0  0  0  0
   -6.2894    0.2046   -0.7695 N   0  0  0  0  0  0  0  0  0  0  0  0
   -6.5232    0.5201    0.6177 C   0  0  0  0  0  0  0  0  0  0  0  0
   -7.5178    0.1465   -1.5468 C   0  0  0  0  0  0  0  0  0  0  0  0
   -3.1420   -0.4631   -0.7471 N   0  0  0  0  0  0  0  0  0  0  0  0
  1  2  1  0
  2  3  1  0
  3  4  2  0
  4  5  1  0
  5  6  2  0
  5  7  1  0
  3  8  1  0
  8  9  1  0
  9 10  1  0
 10 11  1  0
 11 12  1  0
 12 13  1  0
 13 14  2  0
 14 15  1  0
 15 16  1  0
 16 17  1  0
 17 18  1  0
 18 19  1  0
 18 20  1  0
 16 21  2  0
 21 13  1  0
M  CHG  2   5   1   7  -1
M  END
>  <zinc_id>  (45) 
ZINC000001530737

>  <smiles>  (45) 
CN/C(=C/[N+](=O)[O-])NCCSCc1csc(CN(C)C)n1

$$$$

     RDKit          3D

 11 11  0  0  0  0  0  0  0  0999 V2000
    1.0113   -1.4108    2.2151 C   0  0  0  0  0  0  0  0  0  0  0  0
    2.3534   -0.7850    1.5052 C   0  0  2  0  0  0  0  0  0  0  0  0
    1.8281    0.6963    1.5406 N   0  0  0  0  0  0  0  0  0  0  0  0
    1.8719   -1.0889   -0.0258 C   0  0  0  0  0  0  0  0  0  0  0  0
    0.6218   -0.3966   -0.3066 C   0  0  0  0  0  0  0  0  0  0  0  0
   -0.5635   -1.0532   -0.0447 C   0  0  0  0  0  0  0  0  0  0  0  0
   -1.8024   -0.4721   -0.2808 C   0  0  0  0  0  0  0  0  0  0  0  0
   -1.9035    0.8047   -0.7944 C   0  0  0  0  0  0  0  0  0  0  0  0
   -3.1588    1.3595   -1.0199 O   0  0  0  0  0  0  0  0  0  0  0  0
   -0.7280    1.4729   -1.0610 C   0  0  0  0  0  0  0  0  0  0  0  0
    0.4697    0.8734   -0.8176 C   0  0  0  0  0  0  0  0  0  0  0  0
  2  1  1  1
  2  3  1  0
  2  4  1  0
  4  5  1  0
  5  6  2  0
  6  7  1  0
  7  8  2  0
  8  9  1  0
  8 10  1  0
 10 11  2  0
 11  5  1  0
M  END
>  <zinc_id>  (46) 
ZINC000001690604

>  <smiles>  (46) 
C[C@H](N)Cc1ccc(O)cc1

$$$$

     RDKit          3D

 28 31  0  0  0  0  0  0  0  0999 V2000
   -6.2405    3.3294   -0.5591 C   0  0  0  0  0  0  0  0  0  0  0  0
   -5.5109    2.0661   -0.4583 N   0  0  0  0  0  0  0  0  0  0  0  0
   -6.2194    0.8556   -0.3808 C   0  0  0  0  0  0  0  0  0  0  0  0
   -7.4805    0.9000   -0.4011 O   0  0  0  0  0  0  0  0  0  0  0  0
   -5.5600   -0.4395   -0.2786 C   0  0  0  0  0  0  0  0  0  0  0  0
   -6.2773   -1.5974   -0.2051 C   0  0  0  0  0  0  0  0  0  0  0  0
   -5.6472   -2.8261   -0.1082 C   0  0  0  0  0  0  0  0  0  0  0  0
   -4.2818   -2.8608   -0.0871 C   0  0  0  0  0  0  0  0  0  0  0  0
   -3.5815   -1.6988   -0.1611 C   0  0  0  0  0  0  0  0  0  0  0  0
   -4.1800   -0.4555   -0.2587 C   0  0  0  0  0  0  0  0  0  0  0  0
   -3.2002    1.0277   -0.3520 S   0  0  0  0  0  0  0  0  0  0  0  0
   -1.4748    0.5849   -0.2966 C   0  0  0  0  0  0  0  0  0  0  0  0
   -0.4905    1.5703   -0.3541 C   0  0  0  0  0  0  0  0  0  0  0  0
    0.8487    1.2407   -0.3122 C   0  0  0  0  0  0  0  0  0  0  0  0
    1.2589   -0.0817   -0.2115 C   0  0  0  0  0  0  0  0  0  0  0  0
    2.5049   -0.6715   -0.1521 C   0  0  0  0  0  0  0  0  0  0  0  0
    3.7517    0.0587   -0.1876 C   0  0  0  0  0  0  0  0  0  0  0  0
    4.9393   -0.4713   -0.1334 C   0  0  0  0  0  0  0  0  0  0  0  0
    6.1901    0.2940   -0.1714 C   0  0  0  0  0  0  0  0  0  0  0  0
    6.2433    1.6512   -0.2682 C   0  0  0  0  0  0  0  0  0  0  0  0
    7.4628    2.3077   -0.2989 C   0  0  0  0  0  0  0  0  0  0  0  0
    8.5980    1.5174   -0.2266 C   0  0  0  0  0  0  0  0  0  0  0  0
    8.5236    0.1540   -0.1297 C   0  0  0  0  0  0  0  0  0  0  0  0
    7.3280   -0.4292   -0.1040 N   0  0  0  0  0  0  0  0  0  0  0  0
    2.2641   -1.9914   -0.0604 N   0  0  0  0  0  0  0  0  0  0  0  0
    0.9656   -2.2441   -0.0599 N   0  0  0  0  0  0  0  0  0  0  0  0
    0.3002   -1.0725   -0.1533 C   0  0  0  0  0  0  0  0  0  0  0  0
   -1.0348   -0.7180   -0.1969 C   0  0  0  0  0  0  0  0  0  0  0  0
  1  2  1  0
  2  3  1  0
  3  4  2  0
  3  5  1  0
  5  6  2  0
  6  7  1  0
  7  8  2  0
  8  9  1  0
  9 10  2  0
 10 11  1  0
 11 12  1  0
 12 13  2  0
 13 14  1  0
 14 15  2  0
 15 16  1  0
 16 17  1  0
 17 18  2  0
 18 19  1  0
 19 20  2  0
 20 21  1  0
 21 22  2  0
 22 23  1  0
 23 24  2  0
 16 25  2  0
 25 26  1  0
 26 27  1  0
 27 28  2  0
 10  5  1  0
 28 12  1  0
 27 15  1  0
 24 19  1  0
M  END
>  <zinc_id>  (47) 
ZINC000003816287

>  <smiles>  (47) 
CNC(=O)c1ccccc1Sc1ccc2c(/C=C/c3ccccn3)n[nH]c2c1

$$$$

     RDKit          3D

 10  9  0  0  0  0  0  0  0  0999 V2000
    2.0325    1.7410   -0.1122 C   0  0  0  0  0  0  0  0  0  0  0  0
    1.9645    0.3541   -0.9664 C   0  0  1  0  0  0  0  0  0  0  0  0
    3.3945   -0.5063   -0.1032 S   0  0  0  0  0  0  0  0  0  0  0  0
    0.7823   -0.1835   -0.1488 C   0  0  0  0  0  0  0  0  0  0  0  0
    0.6673    0.1434    1.0943 O   0  0  0  0  0  0  0  0  0  0  0  0
   -0.1823   -0.9996   -0.8511 N   0  0  0  0  0  0  0  0  0  0  0  0
   -1.3533   -1.3601    0.0044 C   0  0  0  0  0  0  0  0  0  0  0  0
   -2.2566   -0.1243    0.0701 C   0  0  0  0  0  0  0  0  0  0  0  0
   -3.4637   -0.1927    0.1002 O   0  0  0  0  0  0  0  0  0  0  0  0
   -1.5853    1.1281    0.1060 O   0  0  0  0  0  0  0  0  0  0  0  0
  2  1  1  1
  2  3  1  0
  2  4  1  0
  4  5  2  0
  4  6  1  0
  6  7  1  0
  7  8  1  0
  8  9  2  0
  8 10  1  0
M  END
>  <zinc_id>  (48) 
ZINC000003831551

>  <smiles>  (48) 
C[C@@H](S)C(=O)NCC(=O)O

$$$$

     RDKit          3D

 32 33  0  0  0  0  0  0  0  0999 V2000
    8.1271    2.5765    1.3569 O   0  0  0  0  0  0  0  0  0  0  0  0
    8.3683    2.2422    1.4209 C   0  0  0  0  0  0  0  0  0  0  0  0
    7.9970    0.7747    1.2036 C   0  0  0  0  0  0  0  0  0  0  0  0
    6.7562    0.3994    0.8209 C   0  0  0  0  0  0  0  0  0  0  0  0
    6.3587   -0.8814    0.6405 C   0  0  0  0  0  0  0  0  0  0  0  0
    4.9327   -1.2685    0.1618 C   0  0  1  0  0  0  0  0  0  0  0  0
    4.3151   -1.5885    1.4614 O   0  0  0  0  0  0  0  0  0  0  0  0
    4.3447    0.1828   -0.0014 C   0  0  0  0  0  0  0  0  0  0  0  0
    3.0490    0.2949   -0.0729 N   0  0  0  0  0  0  0  0  0  0  0  0
    2.1010    0.0209    0.9371 C   0  0  0  0  0  0  0  0  0  0  0  0
    0.8550    0.8482    0.4727 C   0  0  0  0  0  0  0  0  0  0  0  0
    0.3669    0.3259   -0.8239 C   0  0  0  0  0  0  0  0  0  0  0  0
   -0.2864   -1.0508   -0.6054 C   0  0  0  0  0  0  0  0  0  0  0  0
   -1.3924   -0.5975    0.4553 C   0  0  0  0  0  0  0  0  0  0  0  0
   -1.9933    0.6283   -0.2373 C   0  0  0  0  0  0  0  0  0  0  0  0
   -2.6082    0.3672   -1.4251 O   0  0  0  0  0  0  0  0  0  0  0  0
   -3.7284   -0.2164   -1.4017 C   0  0  0  0  0  0  0  0  0  0  0  0
   -4.2140   -1.5150   -0.9390 C   0  0  0  0  0  0  0  0  0  0  0  0
   -5.6646   -1.4871   -1.2182 O   0  0  0  0  0  0  0  0  0  0  0  0
   -6.0586   -0.5413   -0.2378 C   0  0  0  0  0  0  0  0  0  0  0  0
   -7.4142   -0.0387   -0.6634 C   0  0  0  0  0  0  0  0  0  0  0  0
   -8.4427   -0.9220   -0.7737 C   0  0  0  0  0  0  0  0  0  0  0  0
   -8.1782   -2.6059   -0.4756 Cl  0  0  0  0  0  0  0  0  0  0  0  0
   -9.7157   -0.5099   -1.1364 C   0  0  0  0  0  0  0  0  0  0  0  0
   -9.9410    0.8047   -1.3853 C   0  0  0  0  0  0  0  0  0  0  0  0
   -8.9200    1.6988   -1.2743 C   0  0  0  0  0  0  0  0  0  0  0  0
   -7.6716    1.2980   -0.9171 C   0  0  0  0  0  0  0  0  0  0  0  0
   -6.3737    2.4821   -0.7350 Cl  0  0  0  0  0  0  0  0  0  0  0  0
    7.2706   -1.8667    0.8664 C   0  0  0  0  0  0  0  0  0  0  0  0
    8.5862   -1.5244    1.2671 C   0  0  0  0  0  0  0  0  0  0  0  0
    8.9464   -0.1858    1.4340 C   0  0  0  0  0  0  0  0  0  0  0  0
   10.2285    0.0924    1.8252 O   0  0  0  0  0  0  0  0  0  0  0  0
  1  2  1  0
  2  3  1  0
  3  4  2  0
  4  5  1  0
  5  6  1  0
  6  7  1  1
  6  8  1  0
  8  9  1  0
  9 10  1  0
 10 11  1  0
 11 12  1  0
 12 13  1  0
 13 14  1  0
 14 15  1  0
 15 16  1  0
 16 17  1  0
 17 18  1  0
 18 19  1  0
 19 20  1  0
 20 21  1  0
 21 22  2  0
 22 23  1  0
 22 24  1  0
 24 25  2  0
 25 26  1  0
 26 27  2  0
 27 28  1  0
  5 29  2  0
 29 30  1  0
 30 31  2  0
 31 32  1  0
 31  3  1  0
 27 21  1  0
M  END
>  <zinc_id>  (49) 
ZINC000003991624

>  <smiles>  (49) 
OCc1cc([C@@H](O)CNCCCCCCOCCOCc2c(Cl)cccc2Cl)ccc1O

$$$$

     RDKit          2D

 20 22  0  0  0  0  0  0  0  0999 V2000
    5.2109   -1.4212    0.0000 N   0  0  0  0  0  0  0  0  0  0  0  0
    4.0075   -0.5257    0.0000 C   0  0  0  0  0  0  0  0  0  0  0  0
    4.1813    0.9642    0.0000 N   0  0  0  0  0  0  0  0  0  0  0  0
    2.9779    1.8596    0.0000 C   0  0  0  0  0  0  0  0  0  0  0  0
    3.1517    3.3495    0.0000 F   0  0  0  0  0  0  0  0  0  0  0  0
    1.6007    1.2652    0.0000 N   0  0  0  0  0  0  0  0  0  0  0  0
    1.4269   -0.2247    0.0000 C   0  0  0  0  0  0  0  0  0  0  0  0
    2.6303   -1.1202    0.0000 C   0  0  0  0  0  0  0  0  0  0  0  0
    2.1505   -2.5414    0.0000 N   0  0  0  0  0  0  0  0  0  0  0  0
    0.6506   -2.5242    0.0000 C   0  0  0  0  0  0  0  0  0  0  0  0
    0.2034   -1.0925    0.0000 N   0  0  0  0  0  0  0  0  0  0  0  0
   -1.2178   -0.6127    0.0000 C   0  0  0  0  0  0  0  0  0  0  0  0
   -2.4413   -1.4805    0.0000 O   0  0  0  0  0  0  0  0  0  0  0  0
   -3.6447   -0.5850    0.0000 C   0  0  0  0  0  0  0  0  0  0  0  0
   -5.0765   -1.0322    0.0000 C   0  0  0  0  0  0  0  0  0  0  0  0
   -6.1796   -0.0159    0.0000 O   0  0  0  0  0  0  0  0  0  0  0  0
   -3.1649    0.8362    0.0000 C   0  0  0  0  0  0  0  0  0  0  0  0
   -4.0327    2.0597    0.0000 O   0  0  0  0  0  0  0  0  0  0  0  0
   -1.6650    0.8191    0.0000 C   0  0  0  0  0  0  0  0  0  0  0  0
   -0.7695    2.0225    0.0000 O   0  0  0  0  0  0  0  0  0  0  0  0
  1  2  1  0
  2  3  2  0
  3  4  1  0
  4  5  1  0
  4  6  2  0
  6  7  1  0
  7  8  2  0
  8  9  1  0
  9 10  2  0
 10 11  1  0
 12 11  1  6
 12 13  1  0
 13 14  1  0
 14 15  1  6
 15 16  1  0
 14 17  1  0
 17 18  1  1
 17 19  1  0
 19 20  1  6
  8  2  1  0
 19 12  1  0
 11  7  1  0
M  END
>  <zinc_id>  (50) 
ZINC000004216238

>  <smiles>  (50) 
Nc1nc(F)nc2c1ncn2[C@@H]1O[C@H](CO)[C@@H](O)[C@@H]1O

$$$$

     RDKit          3D

 65 73  0  0  0  0  0  0  0  0999 V2000
   -8.5204   -5.9146    0.1943 C   0  0  0  0  0  0  0  0  0  0  0  0
   -9.5724   -5.1217   -0.2250 O   0  0  0  0  0  0  0  0  0  0  0  0
   -9.5756   -3.7457   -0.1862 C   0  0  0  0  0  0  0  0  0  0  0  0
   -8.5642   -3.1642    0.2564 O   0  0  0  0  0  0  0  0  0  0  0  0
  -10.6967   -3.0209   -0.6372 N   0  0  0  0  0  0  0  0  0  0  0  0
  -10.5152   -1.4340   -0.5147 C   0  0  2  0  0  0  0  0  0  0  0  0
  -10.6610   -1.3365    1.0579 C   0  0  0  0  0  0  0  0  0  0  0  0
  -11.0058   -2.2617    1.7643 O   0  0  0  0  0  0  0  0  0  0  0  0
  -10.3737   -0.1071    1.6975 N   0  0  0  0  0  0  0  0  0  0  0  0
  -10.4542    0.2762    3.0587 C   0  0  0  0  0  0  0  0  0  0  0  0
  -11.1927    1.6115    2.8743 C   0  0  0  0  0  0  0  0  0  0  0  0
  -10.2010    2.2538    2.0010 C   0  0  0  0  0  0  0  0  0  0  0  0
   -9.8341    1.1114    0.8991 C   0  0  1  0  0  0  0  0  0  0  0  0
   -8.3351    0.9489    1.3867 C   0  0  0  0  0  0  0  0  0  0  0  0
   -7.2904    1.0002    0.5527 N   0  0  0  0  0  0  0  0  0  0  0  0
   -6.1214    0.8414    1.2026 C   0  0  0  0  0  0  0  0  0  0  0  0
   -4.7780    0.8304    0.6788 C   0  0  0  0  0  0  0  0  0  0  0  0
   -4.5528    0.9721   -0.6603 C   0  0  0  0  0  0  0  0  0  0  0  0
   -3.2763    0.9757   -1.1927 C   0  0  0  0  0  0  0  0  0  0  0  0
   -2.2161    0.8355   -0.3724 C   0  0  0  0  0  0  0  0  0  0  0  0
   -2.4252    0.6924    0.9692 C   0  0  0  0  0  0  0  0  0  0  0  0
   -1.2006    0.5779    1.5479 C   0  0  0  0  0  0  0  0  0  0  0  0
   -0.2714    0.6600    0.4939 C   0  0  0  0  0  0  0  0  0  0  0  0
   -0.8793    0.8130   -0.6551 N   0  0  0  0  0  0  0  0  0  0  0  0
   -0.1540    0.9083   -1.9489 C   0  0  1  0  0  0  0  0  0  0  0  0
   -0.3788    2.3292   -2.4939 C   0  0  0  0  0  0  0  0  0  0  0  0
   -1.0540    2.6505   -3.6214 C   0  0  0  0  0  0  0  0  0  0  0  0
   -1.2210    3.9659   -4.0521 C   0  0  0  0  0  0  0  0  0  0  0  0
   -0.6809    4.9551   -3.3028 C   0  0  0  0  0  0  0  0  0  0  0  0
    0.0074    4.6905   -2.1612 C   0  0  0  0  0  0  0  0  0  0  0  0
    0.1382    3.3606   -1.7873 C   0  0  0  0  0  0  0  0  0  0  0  0
    1.2308    0.9044   -1.6110 O   0  0  0  0  0  0  0  0  0  0  0  0
    1.8982    0.7462   -0.4750 C   0  0  0  0  0  0  0  0  0  0  0  0
    3.2663    0.6977   -0.2930 C   0  0  0  0  0  0  0  0  0  0  0  0
    3.9196    0.5325    0.9040 C   0  0  0  0  0  0  0  0  0  0  0  0
    5.3860    0.4997    0.9777 C   0  0  0  0  0  0  0  0  0  0  0  0
    6.2168    0.3426    2.0538 C   0  0  0  0  0  0  0  0  0  0  0  0
    7.5265    0.3778    1.6432 N   0  0  0  0  0  0  0  0  0  0  0  0
    7.5036    0.5545    0.3281 C   0  0  0  0  0  0  0  0  0  0  0  0
    8.7423    0.6713   -0.6399 C   0  0  2  0  0  0  0  0  0  0  0  0
    8.1612   -0.2768   -1.8369 C   0  0  0  0  0  0  0  0  0  0  0  0
    7.7924   -1.5264   -1.0482 C   0  0  0  0  0  0  0  0  0  0  0  0
    8.6872   -1.5424    0.1674 C   0  0  0  0  0  0  0  0  0  0  0  0
    9.6132   -0.4865   -0.1134 N   0  0  0  0  0  0  0  0  0  0  0  0
   10.9972   -0.4580    0.0350 C   0  0  0  0  0  0  0  0  0  0  0  0
   11.7456    0.4709   -0.2226 O   0  0  0  0  0  0  0  0  0  0  0  0
   11.5973   -1.8073    0.6030 C   0  0  1  0  0  0  0  0  0  0  0  0
   13.0960   -1.5010    0.6674 N   0  0  0  0  0  0  0  0  0  0  0  0
   13.6862   -1.6646   -0.5762 C   0  0  0  0  0  0  0  0  0  0  0  0
   12.8931   -2.0134   -1.4472 O   0  0  0  0  0  0  0  0  0  0  0  0
   15.0293   -1.4756   -0.8989 O   0  0  0  0  0  0  0  0  0  0  0  0
   15.4862   -1.6816   -2.2260 C   0  0  0  0  0  0  0  0  0  0  0  0
   11.3223   -1.3499    2.1576 C   0  0  0  0  0  0  0  0  0  0  0  0
   12.0253   -0.1480    2.4585 C   0  0  0  0  0  0  0  0  0  0  0  0
   11.0947   -2.4565    2.9992 C   0  0  0  0  0  0  0  0  0  0  0  0
    6.2155    0.6239   -0.0435 N   0  0  0  0  0  0  0  0  0  0  0  0
    3.1382    0.4021    2.0358 C   0  0  0  0  0  0  0  0  0  0  0  0
    1.7639    0.4406    1.9321 C   0  0  0  0  0  0  0  0  0  0  0  0
    1.1830    0.6098    0.6918 C   0  0  0  0  0  0  0  0  0  0  0  0
   -3.7160    0.6887    1.5059 C   0  0  0  0  0  0  0  0  0  0  0  0
   -6.5279    0.6830    2.5376 C   0  0  0  0  0  0  0  0  0  0  0  0
   -7.8927    0.7567    2.5969 N   0  0  0  0  0  0  0  0  0  0  0  0
  -12.0895   -1.1919   -0.8460 C   0  0  0  0  0  0  0  0  0  0  0  0
  -12.9336   -1.8339    0.1523 C   0  0  0  0  0  0  0  0  0  0  0  0
  -12.2016    0.2573   -1.0688 C   0  0  0  0  0  0  0  0  0  0  0  0
  1  2  1  0
  2  3  1  0
  3  4  2  0
  3  5  1  0
  6  5  1  1
  6  7  1  0
  7  8  2  0
  7  9  1  0
  9 10  1  0
 10 11  1  0
 11 12  1  0
 12 13  1  0
 13 14  1  1
 14 15  2  0
 15 16  1  0
 16 17  1  0
 17 18  2  0
 18 19  1  0
 19 20  2  0
 20 21  1  0
 21 22  1  0
 22 23  2  0
 23 24  1  0
 24 25  1  0
 25 26  1  6
 26 27  2  0
 27 28  1  0
 28 29  2  0
 29 30  1  0
 30 31  2  0
 25 32  1  0
 32 33  1  0
 33 34  2  0
 34 35  1  0
 35 36  1  0
 36 37  2  0
 37 38  1  0
 38 39  1  0
 40 39  1  1
 40 41  1  0
 41 42  1  0
 42 43  1  0
 43 44  1  0
 44 45  1  0
 45 46  2  0
 45 47  1  0
 47 48  1  1
 48 49  1  0
 49 50  2  0
 49 51  1  0
 51 52  1  0
 47 53  1  0
 53 54  1  0
 53 55  1  0
 39 56  2  0
 35 57  2  0
 57 58  1  0
 58 59  2  0
 21 60  2  0
 16 61  2  0
 61 62  1  0
  6 63  1  0
 63 64  1  0
 63 65  1  0
 13  9  1  0
 62 14  1  0
 60 17  1  0
 24 20  1  0
 31 26  1  0
 59 33  1  0
 59 23  1  0
 56 36  1  0
 44 40  1  0
M  END
>  <zinc_id>  (51) 
ZINC000150588351

>  <smiles>  (51) 
COC(=O)N[C@H](C(=O)N1CCC[C@H]1c1nc(-c2ccc3c(c2)O[C@@H](c2ccccc2)n2c-3cc3cc(-c4c[nH]c([C@@H]5CCCN5C(=O)[C@@H](NC(=O)OC)C(C)C)n4)ccc32)c[nH]1)C(C)C

$$$$

     RDKit          3D

 11 11  0  0  0  0  0  0  0  0999 V2000
    3.8092   -0.4345   -0.4441 C   0  0  0  0  0  0  0  0  0  0  0  0
    3.0683   -0.6948    0.3281 N   0  0  0  0  0  0  0  0  0  0  0  0
    1.6708   -0.5370   -0.4421 C   0  0  2  0  0  0  0  0  0  0  0  0
    1.9332    1.0983   -0.6702 C   0  0  0  0  0  0  0  0  0  0  0  0
    0.8400   -0.2458    0.9864 C   0  0  0  0  0  0  0  0  0  0  0  0
   -0.5528   -0.0608    0.4970 C   0  0  0  0  0  0  0  0  0  0  0  0
   -1.0404    1.1652    0.1338 C   0  0  0  0  0  0  0  0  0  0  0  0
   -2.3223    1.3793   -0.3084 C   0  0  0  0  0  0  0  0  0  0  0  0
   -3.1898    0.3430   -0.4078 C   0  0  0  0  0  0  0  0  0  0  0  0
   -2.7512   -0.9010   -0.0583 C   0  0  0  0  0  0  0  0  0  0  0  0
   -1.4651   -1.1119    0.3856 C   0  0  0  0  0  0  0  0  0  0  0  0
  1  2  1  0
  2  3  1  0
  3  4  1  6
  3  5  1  0
  5  6  1  0
  6  7  2  0
  7  8  1  0
  8  9  2  0
  9 10  1  0
 10 11  2  0
 11  6  1  0
M  END
>  <zinc_id>  (52) 
ZINC000008466459

>  <smiles>  (52) 
CN[C@H](C)Cc1ccccc1

$$$$

     RDKit          3D

 58 62  0  0  0  0  0  0  0  0999 V2000
    0.5408   -4.7706    1.2403 C   0  0  0  0  0  0  0  0  0  0  0  0
    0.6107   -4.5691    1.0941 C   0  0  0  0  0  0  0  0  0  0  0  0
    1.0017   -3.3868    0.0221 C   0  0  1  0  0  0  0  0  0  0  0  0
   -0.3151   -3.1754   -0.5594 O   0  0  0  0  0  0  0  0  0  0  0  0
   -1.3144   -3.8274   -1.1073 C   0  0  0  0  0  0  0  0  0  0  0  0
   -1.3055   -4.5306   -2.1214 O   0  0  0  0  0  0  0  0  0  0  0  0
   -2.6408   -3.6097   -0.2731 C   0  0  2  0  0  0  0  0  0  0  0  0
   -3.5277   -4.7896   -0.8993 C   0  0  0  0  0  0  0  0  0  0  0  0
   -3.2676   -2.4128   -1.1305 C   0  0  0  0  0  0  0  0  0  0  0  0
   -2.8688   -2.0996   -2.1551 O   0  0  0  0  0  0  0  0  0  0  0  0
   -4.4924   -1.7635   -0.3718 C   0  0  2  0  0  0  0  0  0  0  0  0
   -5.5114   -2.0551   -1.5761 C   0  0  0  0  0  0  0  0  0  0  0  0
   -4.2465   -0.0809   -0.8796 C   0  0  1  0  0  0  0  0  0  0  0  0
   -5.6741    0.1625   -0.8053 O   0  0  0  0  0  0  0  0  0  0  0  0
   -6.0099    1.4358   -1.3751 C   0  0  2  0  0  0  0  0  0  0  0  0
   -5.2515    2.3589   -0.5162 O   0  0  0  0  0  0  0  0  0  0  0  0
   -5.6287    3.6170   -1.2852 C   0  0  2  0  0  0  0  0  0  0  0  0
   -4.6364    4.5806   -0.4281 C   0  0  0  0  0  0  0  0  0  0  0  0
   -6.9042    3.8922   -0.2763 C   0  0  0  0  0  0  0  0  0  0  0  0
   -7.9585    2.9408   -1.1005 C   0  0  2  0  0  0  0  0  0  0  0  0
   -9.0639    3.1777   -0.0419 N   0  0  0  0  0  0  0  0  0  0  0  0
   -9.7466    1.9798    0.2454 C   0  0  0  0  0  0  0  0  0  0  0  0
   -9.9407    4.1842   -0.5624 C   0  0  0  0  0  0  0  0  0  0  0  0
   -7.4143    1.5486   -0.3403 C   0  0  1  0  0  0  0  0  0  0  0  0
   -8.1783    0.6624   -1.2874 O   0  0  0  0  0  0  0  0  0  0  0  0
   -3.8596    0.4007    0.5846 C   0  0  2  0  0  0  0  0  0  0  0  0
   -3.2362   -0.8046    1.1954 C   0  0  0  0  0  0  0  0  0  0  0  0
   -4.9441    0.4713    1.4224 O   0  0  0  0  0  0  0  0  0  0  0  0
   -4.5544    0.8498    2.6971 C   0  0  0  0  0  0  0  0  0  0  0  0
   -2.8111    1.3823    0.7507 C   0  0  0  0  0  0  0  0  0  0  0  0
   -1.7763    1.5003   -0.4265 C   0  0  1  0  0  0  0  0  0  0  0  0
   -1.0399    2.8326    0.1997 C   0  0  0  0  0  0  0  0  0  0  0  0
   -0.6913    0.5336   -0.1564 C   0  0  0  0  0  0  0  0  0  0  0  0
   -0.3387   -0.1281   -1.2793 O   0  0  0  0  0  0  0  0  0  0  0  0
    0.0980    0.1076    1.0440 C   0  0  2  0  0  0  0  0  0  0  0  0
    0.9238    1.4552    1.3148 C   0  0  0  0  0  0  0  0  0  0  0  0
    1.2786   -0.8819    0.3884 C   0  0  1  0  0  0  0  0  0  0  0  0
    2.4955   -0.5451    1.1632 N   0  0  0  0  0  0  0  0  0  0  0  0
    3.4094    0.5834    0.8628 C   0  0  0  0  0  0  0  0  0  0  0  0
    4.4685    0.0449   -0.1186 C   0  0  0  0  0  0  0  0  0  0  0  0
    4.9980   -1.2597    0.3536 C   0  0  0  0  0  0  0  0  0  0  0  0
    6.1674   -1.8317   -0.3739 C   0  0  0  0  0  0  0  0  0  0  0  0
    7.3223   -0.9743   -0.1173 N   0  0  0  0  0  0  0  0  0  0  0  0
    8.0787   -1.2062    1.0356 C   0  0  0  0  0  0  0  0  0  0  0  0
    9.0167   -0.2819    1.0661 N   0  0  0  0  0  0  0  0  0  0  0  0
    8.9694    0.5373    0.0533 C   0  0  0  0  0  0  0  0  0  0  0  0
    9.7453    1.7388   -0.2068 C   0  0  0  0  0  0  0  0  0  0  0  0
    9.7421    2.4997   -1.3398 C   0  0  0  0  0  0  0  0  0  0  0  0
   10.5282    3.6670   -1.3193 C   0  0  0  0  0  0  0  0  0  0  0  0
   11.2535    4.0062   -0.2216 C   0  0  0  0  0  0  0  0  0  0  0  0
   11.2467    3.2549    0.8700 N   0  0  0  0  0  0  0  0  0  0  0  0
   10.5205    2.1419    0.9105 C   0  0  0  0  0  0  0  0  0  0  0  0
    7.8583    0.0700   -0.7050 C   0  0  0  0  0  0  0  0  0  0  0  0
    2.7294   -1.4308    2.2495 C   0  0  0  0  0  0  0  0  0  0  0  0
    3.4911   -1.2111    3.1856 O   0  0  0  0  0  0  0  0  0  0  0  0
    1.9795   -2.5023    2.0128 O   0  0  0  0  0  0  0  0  0  0  0  0
    0.9313   -2.2203    1.1942 C   0  0  2  0  0  0  0  0  0  0  0  0
   -0.2560   -2.2688    1.9344 C   0  0  0  0  0  0  0  0  0  0  0  0
  1  2  1  0
  3  2  1  1
  3  4  1  0
  4  5  1  0
  5  6  2  0
  5  7  1  0
  7  8  1  6
  7  9  1  0
  9 10  2  0
  9 11  1  0
 11 12  1  6
 11 13  1  0
 13 14  1  1
 15 14  1  1
 15 16  1  0
 16 17  1  0
 17 18  1  1
 17 19  1  0
 19 20  1  0
 20 21  1  1
 21 22  1  0
 21 23  1  0
 20 24  1  0
 24 25  1  6
 13 26  1  0
 26 27  1  1
 26 28  1  0
 28 29  1  0
 26 30  1  0
 30 31  1  0
 31 32  1  1
 31 33  1  0
 33 34  2  0
 33 35  1  0
 35 36  1  6
 35 37  1  0
 37 38  1  1
 38 39  1  0
 39 40  1  0
 40 41  1  0
 41 42  1  0
 42 43  1  0
 43 44  1  0
 44 45  2  0
 45 46  1  0
 46 47  1  0
 47 48  2  0
 48 49  1  0
 49 50  2  0
 50 51  1  0
 51 52  2  0
 46 53  2  0
 38 54  1  0
 54 55  2  0
 54 56  1  0
 56 57  1  0
 57 58  1  1
 57  3  1  0
 24 15  1  0
 57 37  1  0
 53 43  1  0
 52 47  1  0
M  END
>  <zinc_id>  (53) 
ZINC000009574770

>  <smiles>  (53) 
CC[C@H]1OC(=O)[C@H](C)C(=O)[C@H](C)[C@@H](O[C@@H]2O[C@H](C)C[C@H](N(C)C)[C@H]2O)[C@](C)(OC)C[C@@H](C)C(=O)[C@H](C)[C@H]2N(CCCCn3cnc(-c4cccnc4)c3)C(=O)O[C@]12C

$$$$

     RDKit          3D

 23 22  0  0  0  0  0  0  0  0999 V2000
    7.3518    2.8475    0.1051 C   0  0  0  0  0  0  0  0  0  0  0  0
    7.3458    1.3962   -0.3053 C   0  0  0  0  0  0  0  0  0  0  0  0
    6.4047    0.6065    0.6120 C   0  0  0  0  0  0  0  0  0  0  0  0
    6.4679   -0.8385    0.1192 C   0  0  0  0  0  0  0  0  0  0  0  0
    5.5427   -1.6851    1.0010 C   0  0  0  0  0  0  0  0  0  0  0  0
    4.1518   -1.0896    0.8336 C   0  0  0  0  0  0  0  0  0  0  0  0
    3.7765   -1.1815   -0.6347 C   0  0  0  0  0  0  0  0  0  0  0  0
    2.3909   -0.5837   -0.7752 C   0  0  0  0  0  0  0  0  0  0  0  0
    1.4606   -1.4070    0.0979 C   0  0  0  0  0  0  0  0  0  0  0  0
    0.0465   -0.9261    0.0565 C   0  0  0  0  0  0  0  0  0  0  0  0
   -0.0998    0.4329    0.5039 N   0  0  0  0  0  0  0  0  0  0  0  0
    0.3880    1.3265   -0.5510 C   0  0  0  0  0  0  0  0  0  0  0  0
    0.7654    0.6527    1.6747 C   0  0  0  0  0  0  0  0  0  0  0  0
   -1.4320    0.7516    0.9088 C   0  0  0  0  0  0  0  0  0  0  0  0
   -2.3538    1.1367   -0.1916 C   0  0  0  0  0  0  0  0  0  0  0  0
   -2.5656    0.1164   -1.2408 C   0  0  0  0  0  0  0  0  0  0  0  0
   -3.1156   -1.1736   -0.9067 C   0  0  0  0  0  0  0  0  0  0  0  0
   -4.4294   -1.4149   -0.3624 C   0  0  0  0  0  0  0  0  0  0  0  0
   -5.6041   -1.0431   -1.1708 C   0  0  0  0  0  0  0  0  0  0  0  0
   -5.8359    0.3696   -1.5180 C   0  0  0  0  0  0  0  0  0  0  0  0
   -6.0978    1.2676   -0.3491 C   0  0  0  0  0  0  0  0  0  0  0  0
   -7.3210    0.9097    0.4473 C   0  0  0  0  0  0  0  0  0  0  0  0
   -7.2376   -0.4708    1.0187 C   0  0  0  0  0  0  0  0  0  0  0  0
  1  2  1  0
  2  3  1  0
  3  4  1  0
  4  5  1  0
  5  6  1  0
  6  7  1  0
  7  8  1  0
  8  9  1  0
  9 10  1  0
 10 11  1  0
 11 12  1  0
 11 13  1  0
 11 14  1  0
 14 15  1  0
 15 16  1  0
 16 17  1  0
 17 18  1  0
 18 19  1  0
 19 20  1  0
 20 21  1  0
 21 22  1  0
 22 23  1  0
M  CHG  1  11   1
M  END
>  <zinc_id>  (54) 
ZINC000014881137

>  <smiles>  (54) 
CCCCCCCCCC[N+](C)(C)CCCCCCCCCC

$$$$

     RDKit          2D

 68 71  0  0  0  0  0  0  0  0999 V2000
    9.0874   -4.0019    0.0000 C   0  0  0  0  0  0  0  0  0  0  0  0
   10.0675   -2.8664    0.0000 O   0  0  0  0  0  0  0  0  0  0  0  0
    9.5743   -1.4498    0.0000 C   0  0  0  0  0  0  0  0  0  0  0  0
    8.1009   -1.1687    0.0000 C   0  0  0  0  0  0  0  0  0  0  0  0
    7.6076    0.2479    0.0000 C   0  0  0  0  0  0  0  0  0  0  0  0
    6.1342    0.5290    0.0000 C   0  0  0  0  0  0  0  0  0  0  0  0
    5.1540   -0.6065    0.0000 C   0  0  0  0  0  0  0  0  0  0  0  0
    5.6473   -2.0230    0.0000 C   0  0  0  0  0  0  0  0  0  0  0  0
    3.6806   -0.3253    0.0000 C   0  0  0  0  0  0  0  0  0  0  0  0
    3.8008    1.1698    0.0000 C   0  0  0  0  0  0  0  0  0  0  0  0
    3.5967    2.6559    0.0000 C   0  0  0  0  0  0  0  0  0  0  0  0
    5.0520    3.0194    0.0000 O   0  0  0  0  0  0  0  0  0  0  0  0
    3.0780    4.0633    0.0000 C   0  0  0  0  0  0  0  0  0  0  0  0
    4.4211    4.7312    0.0000 C   0  0  0  0  0  0  0  0  0  0  0  0
    2.2688    5.3264    0.0000 C   0  0  0  0  0  0  0  0  0  0  0  0
    1.2070    6.3859    0.0000 C   0  0  0  0  0  0  0  0  0  0  0  0
    2.1455    7.5560    0.0000 C   0  0  0  0  0  0  0  0  0  0  0  0
   -0.0577    7.1924    0.0000 C   0  0  0  0  0  0  0  0  0  0  0  0
    0.6073    8.5369    0.0000 O   0  0  0  0  0  0  0  0  0  0  0  0
   -1.4662    7.7082    0.0000 C   0  0  0  0  0  0  0  0  0  0  0  0
   -1.1058    9.1643    0.0000 O   0  0  0  0  0  0  0  0  0  0  0  0
   -2.1865   10.2045    0.0000 C   0  0  0  0  0  0  0  0  0  0  0  0
   -2.9527    7.9092    0.0000 C   0  0  0  0  0  0  0  0  0  0  0  0
   -2.9137    9.4086    0.0000 O   0  0  0  0  0  0  0  0  0  0  0  0
   -4.4477    7.7858    0.0000 C   0  0  0  0  0  0  0  0  0  0  0  0
   -4.7319    9.2587    0.0000 C   0  0  0  0  0  0  0  0  0  0  0  0
   -5.8811    7.3441    0.0000 C   0  0  0  0  0  0  0  0  0  0  0  0
   -7.1861    6.6044    0.0000 C   0  0  0  0  0  0  0  0  0  0  0  0
   -8.0625    7.8218    0.0000 C   0  0  0  0  0  0  0  0  0  0  0  0
   -8.3016    5.6016    0.0000 C   0  0  0  0  0  0  0  0  0  0  0  0
   -9.1754    4.3824    0.0000 C   0  0  0  0  0  0  0  0  0  0  0  0
   -9.7667    3.0038    0.0000 C   0  0  0  0  0  0  0  0  0  0  0  0
  -10.0478    1.5304    0.0000 C   0  0  0  0  0  0  0  0  0  0  0  0
  -10.0056    0.0310    0.0000 C   0  0  0  0  0  0  0  0  0  0  0  0
   -9.6421   -1.4243    0.0000 C   0  0  0  0  0  0  0  0  0  0  0  0
  -11.0495   -1.9430    0.0000 C   0  0  0  0  0  0  0  0  0  0  0  0
   -8.9742   -2.7674    0.0000 C   0  0  0  0  0  0  0  0  0  0  0  0
  -10.2372   -3.5765    0.0000 O   0  0  0  0  0  0  0  0  0  0  0  0
  -10.1680   -5.0749    0.0000 C   0  0  0  0  0  0  0  0  0  0  0  0
   -8.0332   -3.9355    0.0000 C   0  0  0  0  0  0  0  0  0  0  0  0
   -6.8631   -4.8740    0.0000 C   0  0  0  0  0  0  0  0  0  0  0  0
   -7.0180   -6.4147    0.0000 C   0  0  0  0  0  0  0  0  0  0  0  0
   -6.0560   -7.5657    0.0000 C   0  0  0  0  0  0  0  0  0  0  0  0
   -4.5783   -7.3081    0.0000 C   0  0  0  0  0  0  0  0  0  0  0  0
   -3.6164   -8.4591    0.0000 C   0  0  0  0  0  0  0  0  0  0  0  0
   -4.0625   -5.8996    0.0000 C   0  0  0  0  0  0  0  0  0  0  0  0
   -3.9653   -6.7800    0.0000 O   0  0  0  0  0  0  0  0  0  0  0  0
   -5.5186   -5.5391    0.0000 O   0  0  0  0  0  0  0  0  0  0  0  0
   -2.5630   -5.9386    0.0000 C   0  0  0  0  0  0  0  0  0  0  0  0
   -2.4397   -7.4335    0.0000 O   0  0  0  0  0  0  0  0  0  0  0  0
   -1.0902   -5.6544    0.0000 C   0  0  0  0  0  0  0  0  0  0  0  0
   -0.6484   -7.0879    0.0000 O   0  0  0  0  0  0  0  0  0  0  0  0
    0.2871   -5.0602    0.0000 N   0  0  0  0  0  0  0  0  0  0  0  0
    0.4374   -6.5527    0.0000 C   0  0  0  0  0  0  0  0  0  0  0  0
    1.8050   -7.1688    0.0000 C   0  0  0  0  0  0  0  0  0  0  0  0
    3.0224   -6.2924    0.0000 C   0  0  0  0  0  0  0  0  0  0  0  0
    2.8721   -4.7999    0.0000 C   0  0  0  0  0  0  0  0  0  0  0  0
    1.5044   -4.1838    0.0000 C   0  0  0  0  0  0  0  0  0  0  0  0
    2.5050   -3.0663    0.0000 C   0  0  0  0  0  0  0  0  0  0  0  0
    3.7242   -3.9401    0.0000 O   0  0  0  0  0  0  0  0  0  0  0  0
    3.2418   -1.7597    0.0000 O   0  0  0  0  0  0  0  0  0  0  0  0
    8.5878    1.3833    0.0000 C   0  0  0  0  0  0  0  0  0  0  0  0
   10.0612    1.1022    0.0000 C   0  0  0  0  0  0  0  0  0  0  0  0
   10.5545   -0.3144    0.0000 C   0  0  0  0  0  0  0  0  0  0  0  0
   12.0279   -0.5955    0.0000 O   0  0  0  0  0  0  0  0  0  0  0  0
   13.0080    0.5400    0.0000 C   0  0  0  0  0  0  0  0  0  0  0  0
   14.4815    0.2589    0.0000 C   0  0  0  0  0  0  0  0  0  0  0  0
   15.4616    1.3943    0.0000 O   0  0  0  0  0  0  0  0  0  0  0  0
  1  2  1  0
  3  2  1  6
  3  4  1  0
  4  5  1  0
  5  6  1  6
  6  7  1  0
  7  8  1  1
  7  9  1  0
  9 10  1  1
 10 11  1  0
 11 12  2  0
 11 13  1  0
 13 14  1  1
 13 15  1  0
 15 16  2  0
 16 17  1  0
 16 18  1  0
 18 19  1  6
 18 20  1  0
 20 21  1  6
 21 22  1  0
 20 23  1  0
 23 24  2  0
 23 25  1  0
 25 26  1  1
 25 27  1  0
 27 28  1  0
 28 29  1  1
 28 30  1  0
 30 31  2  0
 31 32  1  0
 32 33  2  0
 33 34  1  0
 34 35  2  0
 35 36  1  0
 35 37  1  0
 37 38  1  6
 38 39  1  0
 37 40  1  0
 41 40  1  1
 41 42  1  0
 42 43  1  0
 43 44  1  0
 44 45  1  6
 44 46  1  0
 46 47  1  6
 46 48  1  0
 46 49  1  0
 49 50  2  0
 49 51  1  0
 51 52  2  0
 51 53  1  0
 53 54  1  0
 54 55  1  0
 55 56  1  0
 56 57  1  0
 58 57  1  6
 58 59  1  0
 59 60  2  0
 59 61  1  0
  5 62  1  0
 62 63  1  0
 63 64  1  0
 64 65  1  1
 65 66  1  0
 66 67  1  0
 67 68  1  0
 64  3  1  0
 61  9  1  0
 48 41  1  0
 58 53  1  0
M  END
>  <zinc_id>  (55) 
ZINC000169677008

>  <smiles>  (55) 
CO[C@H]1C[C@@H]2CC[C@@H](C)[C@@](O)(O2)C(=O)C(=O)N2CCCC[C@H]2C(=O)O[C@H]([C@H](C)C[C@@H]2CC[C@@H](OCCO)[C@H](OC)C2)CC(=O)[C@H](C)/C=C(\C)[C@@H](O)[C@@H](OC)C(=O)[C@H](C)C[C@H](C)/C=C/C=C/C=C/1C

$$$$

     RDKit          3D

 32 36  0  0  0  0  0  0  0  0999 V2000
    0.7005    5.1842    1.5821 C   0  0  0  0  0  0  0  0  0  0  0  0
    0.3470    4.7846    0.7956 C   0  0  0  0  0  0  0  0  0  0  0  0
    0.8861    5.1074   -0.2584 O   0  0  0  0  0  0  0  0  0  0  0  0
   -0.7732    3.8303    0.7580 C   0  0  1  0  0  0  0  0  0  0  0  0
   -1.3013    3.5909    2.0239 O   0  0  0  0  0  0  0  0  0  0  0  0
   -1.9341    4.3113   -0.1256 C   0  0  0  0  0  0  0  0  0  0  0  0
   -2.3348    3.1508   -1.0199 C   0  0  0  0  0  0  0  0  0  0  0  0
   -1.8293    1.9809   -0.0511 C   0  0  1  0  0  0  0  0  0  0  0  0
   -1.3077    0.8976   -1.2440 C   0  0  2  0  0  0  0  0  0  0  0  0
   -2.8382    0.4117   -1.5933 C   0  0  0  0  0  0  0  0  0  0  0  0
   -2.5500   -0.9211   -2.3108 C   0  0  0  0  0  0  0  0  0  0  0  0
   -2.2404   -1.8662   -1.2265 C   0  0  0  0  0  0  0  0  0  0  0  0
   -2.7553   -3.0682   -1.2838 C   0  0  0  0  0  0  0  0  0  0  0  0
   -2.4729   -4.0472   -0.2197 C   0  0  0  0  0  0  0  0  0  0  0  0
   -2.5122   -5.2787   -0.4054 O   0  0  0  0  0  0  0  0  0  0  0  0
   -2.1363   -3.4030    1.0982 C   0  0  0  0  0  0  0  0  0  0  0  0
   -1.0203   -2.4015    0.9031 C   0  0  0  0  0  0  0  0  0  0  0  0
   -1.3752   -1.3874   -0.1580 C   0  0  0  0  0  0  0  0  0  0  0  0
   -0.9703   -0.1887   -0.1631 C   0  0  0  0  0  0  0  0  0  0  0  0
   -0.0815    0.2871    1.0354 C   0  0  1  0  0  0  0  0  0  0  0  0
    1.1807   -0.6259    0.7102 C   0  0  0  0  0  0  0  0  0  0  0  0
    1.8830   -1.1198    1.7997 C   0  0  0  0  0  0  0  0  0  0  0  0
    2.9804   -1.9070    1.5335 C   0  0  0  0  0  0  0  0  0  0  0  0
    3.3763   -2.2000    0.2636 C   0  0  0  0  0  0  0  0  0  0  0  0
    4.5338   -3.0299    0.0265 N   0  0  0  0  0  0  0  0  0  0  0  0
    4.9426   -3.3328   -1.3112 C   0  0  0  0  0  0  0  0  0  0  0  0
    5.2641   -3.5437    1.1389 C   0  0  0  0  0  0  0  0  0  0  0  0
    2.6512   -1.6895   -0.7837 C   0  0  0  0  0  0  0  0  0  0  0  0
    1.5538   -0.9026   -0.5404 C   0  0  0  0  0  0  0  0  0  0  0  0
    0.5286    1.6453    0.4138 C   0  0  0  0  0  0  0  0  0  0  0  0
   -0.3588    2.6336    0.0266 C   0  0  2  0  0  0  0  0  0  0  0  0
   -0.0363    3.0972   -1.4146 C   0  0  0  0  0  0  0  0  0  0  0  0
  1  2  1  0
  2  3  2  0
  2  4  1  0
  4  5  1  1
  4  6  1  0
  6  7  1  0
  8  7  1  6
  8  9  1  0
  9 10  1  6
 10 11  1  0
 11 12  1  0
 12 13  2  0
 13 14  1  0
 14 15  2  0
 14 16  1  0
 16 17  1  0
 17 18  1  0
 18 19  2  0
 19 20  1  0
 20 21  1  6
 21 22  2  0
 22 23  1  0
 23 24  2  0
 24 25  1  0
 25 26  1  0
 25 27  1  0
 24 28  1  0
 28 29  2  0
 20 30  1  0
 30 31  1  0
 31 32  1  6
 31  4  1  0
 31  8  1  0
 19  9  1  0
 29 21  1  0
 18 12  1  0
M  END
>  <zinc_id>  (56) 
ZINC000034089131

>  <smiles>  (56) 
CC(=O)[C@@]1(O)CC[C@H]2[C@@H]3CCC4=CC(=O)CCC4=C3[C@@H](c3ccc(N(C)C)cc3)C[C@@]21C

$$$$

     RDKit          3D

 22 23  0  0  0  0  0  0  0  0999 V2000
    5.2359   -0.0903    1.5762 C   0  0  0  0  0  0  0  0  0  0  0  0
    4.5196    1.4309    1.5592 C   0  0  2  0  0  0  0  0  0  0  0  0
    3.3010    0.9607    0.6807 N   0  0  0  0  0  0  0  0  0  0  0  0
    2.6073   -0.0288    1.4358 C   0  0  0  0  0  0  0  0  0  0  0  0
    1.4229   -0.5903    0.7973 C   0  0  0  0  0  0  0  0  0  0  0  0
    0.5833    0.1282   -0.0176 C   0  0  0  0  0  0  0  0  0  0  0  0
   -0.5005   -0.5186   -0.5645 C   0  0  0  0  0  0  0  0  0  0  0  0
   -0.8090   -1.8242   -0.3605 C   0  0  0  0  0  0  0  0  0  0  0  0
   -1.8759   -2.5052   -0.8842 O   0  0  0  0  0  0  0  0  0  0  0  0
   -2.8434   -1.9807   -1.7175 C   0  0  0  0  0  0  0  0  0  0  0  0
   -3.5689   -0.8758   -1.0435 C   0  0  0  0  0  0  0  0  0  0  0  0
   -4.3542   -1.2563    0.0309 C   0  0  0  0  0  0  0  0  0  0  0  0
   -5.0551   -0.3003    0.6899 C   0  0  0  0  0  0  0  0  0  0  0  0
   -5.0140    1.0120    0.3345 C   0  0  0  0  0  0  0  0  0  0  0  0
   -4.2349    1.3983   -0.7337 C   0  0  0  0  0  0  0  0  0  0  0  0
   -4.2121    2.7081   -1.0652 F   0  0  0  0  0  0  0  0  0  0  0  0
   -3.5210    0.4422   -1.4089 C   0  0  0  0  0  0  0  0  0  0  0  0
    0.0581   -2.5389    0.4721 C   0  0  0  0  0  0  0  0  0  0  0  0
    1.1505   -1.9213    1.0346 C   0  0  0  0  0  0  0  0  0  0  0  0
    5.4051    1.9539    0.3565 C   0  0  0  0  0  0  0  0  0  0  0  0
    6.6521    2.4912    0.7047 N   0  0  0  0  0  0  0  0  0  0  0  0
    5.0530    1.9052   -0.8041 O   0  0  0  0  0  0  0  0  0  0  0  0
  2  1  1  6
  2  3  1  0
  3  4  1  0
  4  5  1  0
  5  6  2  0
  6  7  1  0
  7  8  2  0
  8  9  1  0
  9 10  1  0
 10 11  1  0
 11 12  2  0
 12 13  1  0
 13 14  2  0
 14 15  1  0
 15 16  1  0
 15 17  2  0
  8 18  1  0
 18 19  2  0
  2 20  1  0
 20 21  1  0
 20 22  2  0
 19  5  1  0
 17 11  1  0
M  END
>  <zinc_id>  (57) 
ZINC000053084692

>  <smiles>  (57) 
C[C@H](NCc1ccc(OCc2cccc(F)c2)cc1)C(N)=O

$$$$

     RDKit          3D

 34 36  0  0  0  0  0  0  0  0999 V2000
   10.0946   -1.1477    1.5749 C   0  0  0  0  0  0  0  0  0  0  0  0
    9.7383    0.3303    1.4460 C   0  0  0  0  0  0  0  0  0  0  0  0
    8.5137    0.4064    0.5974 C   0  0  0  0  0  0  0  0  0  0  0  0
    8.4755    1.0504   -0.5357 C   0  0  0  0  0  0  0  0  0  0  0  0
    9.6065    1.8051   -1.1751 C   0  0  0  0  0  0  0  0  0  0  0  0
    7.1339    0.9625   -1.1673 C   0  0  0  0  0  0  0  0  0  0  0  0
    6.3639    0.1687   -0.2570 N   0  0  0  0  0  0  0  0  0  0  0  0
    5.0108   -0.2146   -0.3981 C   0  0  0  0  0  0  0  0  0  0  0  0
    4.3737    0.1448   -1.3945 O   0  0  0  0  0  0  0  0  0  0  0  0
    4.3661   -1.0146    0.5986 N   0  0  0  0  0  0  0  0  0  0  0  0
    2.9860   -1.3626    0.3806 C   0  0  0  0  0  0  0  0  0  0  0  0
    2.1104   -0.1049    0.2752 C   0  0  0  0  0  0  0  0  0  0  0  0
    0.6830   -0.4829    0.0486 C   0  0  0  0  0  0  0  0  0  0  0  0
    0.1448   -0.6467   -1.2095 C   0  0  0  0  0  0  0  0  0  0  0  0
   -1.1758   -0.9943   -1.4037 C   0  0  0  0  0  0  0  0  0  0  0  0
   -2.0590   -1.2047   -0.3705 C   0  0  0  0  0  0  0  0  0  0  0  0
   -3.7294   -1.6445   -0.6141 S   0  0  0  0  0  0  0  0  0  0  0  0
   -3.8714   -2.5254   -1.8552 O   0  0  0  0  0  0  0  0  0  0  0  0
   -4.1118   -2.5866    0.5156 O   0  0  0  0  0  0  0  0  0  0  0  0
   -4.8309   -0.4226   -0.7488 N   0  0  0  0  0  0  0  0  0  0  0  0
   -5.1745    0.5530    0.1908 C   0  0  0  0  0  0  0  0  0  0  0  0
   -4.6072    0.5429    1.2782 O   0  0  0  0  0  0  0  0  0  0  0  0
   -6.1429    1.5079   -0.1198 N   0  0  0  0  0  0  0  0  0  0  0  0
   -6.4838    2.5767    0.9805 C   0  0  1  0  0  0  0  0  0  0  0  0
   -7.9647    2.9528    0.3849 C   0  0  0  0  0  0  0  0  0  0  0  0
   -8.6081    1.8047   -0.2171 C   0  0  0  0  0  0  0  0  0  0  0  0
   -9.1883    0.8339    0.9585 C   0  0  1  0  0  0  0  0  0  0  0  0
   -9.3076   -0.4605   -0.0639 C   0  0  0  0  0  0  0  0  0  0  0  0
   -7.7021    0.3946    1.4693 C   0  0  0  0  0  0  0  0  0  0  0  0
   -7.0692    1.5365    2.1053 C   0  0  0  0  0  0  0  0  0  0  0  0
   -1.5149   -1.0394    0.8859 C   0  0  0  0  0  0  0  0  0  0  0  0
   -0.1945   -0.6919    1.0893 C   0  0  0  0  0  0  0  0  0  0  0  0
    7.2220   -0.1707    0.8335 C   0  0  0  0  0  0  0  0  0  0  0  0
    6.9130   -0.8566    1.8353 O   0  0  0  0  0  0  0  0  0  0  0  0
  1  2  1  0
  2  3  1  0
  3  4  2  0
  4  5  1  0
  4  6  1  0
  6  7  1  0
  7  8  1  0
  8  9  2  0
  8 10  1  0
 10 11  1  0
 11 12  1  0
 12 13  1  0
 13 14  2  0
 14 15  1  0
 15 16  2  0
 16 17  1  0
 17 18  2  0
 17 19  2  0
 17 20  1  0
 20 21  1  0
 21 22  2  0
 21 23  1  0
 24 23  1  6
 24 25  1  0
 25 26  1  0
 26 27  1  0
 27 28  1  6
 27 29  1  0
 29 30  1  0
 16 31  1  0
 31 32  2  0
  7 33  1  0
 33 34  2  0
 33  3  1  0
 32 13  1  0
 30 24  1  0
M  END
>  <zinc_id>  (58) 
ZINC000100070954

>  <smiles>  (58) 
CCC1=C(C)CN(C(=O)NCCc2ccc(S(=O)(=O)NC(=O)N[C@@H]3CC[C@H](C)CC3)cc2)C1=O

$$$$

     RDKit          3D

 23 24  0  0  0  0  0  0  0  0999 V2000
   -1.2119    2.4479   -0.6731 O   0  0  0  0  0  0  0  0  0  0  0  0
   -1.2348    1.2273   -0.5104 C   0  0  0  0  0  0  0  0  0  0  0  0
   -0.0473    0.4987   -0.1408 C   0  0  0  0  0  0  0  0  0  0  0  0
    0.1300   -0.8244   -0.6537 C   0  0  0  0  0  0  0  0  0  0  0  0
    1.3401   -1.4609   -0.5608 C   0  0  0  0  0  0  0  0  0  0  0  0
    2.4442   -0.8816    0.0263 C   0  0  0  0  0  0  0  0  0  0  0  0
    3.7554   -1.5702    0.0898 C   0  0  0  0  0  0  0  0  0  0  0  0
    4.6837   -0.6629   -0.4541 F   0  0  0  0  0  0  0  0  0  0  0  0
    4.1041   -1.9235    1.3709 F   0  0  0  0  0  0  0  0  0  0  0  0
    3.6931   -2.6640   -0.7597 F   0  0  0  0  0  0  0  0  0  0  0  0
    2.2625    0.3871    0.5238 C   0  0  0  0  0  0  0  0  0  0  0  0
    1.0359    1.0588    0.4360 C   0  0  0  0  0  0  0  0  0  0  0  0
    0.9419    2.3208    1.0653 N   0  0  0  0  0  0  0  0  0  0  0  0
   -0.0790    2.6972    1.6560 O   0  0  0  0  0  0  0  0  0  0  0  0
    2.0454    3.1322    1.0995 O   0  0  0  0  0  0  0  0  0  0  0  0
   -2.5147    0.5515   -0.6815 C   0  0  0  0  0  0  0  0  0  0  0  0
   -3.2029    0.3704    0.6426 C   0  0  0  0  0  0  0  0  0  0  0  0
   -3.8094    1.2988    1.0991 O   0  0  0  0  0  0  0  0  0  0  0  0
   -3.0980   -0.9040    1.2943 C   0  0  0  0  0  0  0  0  0  0  0  0
   -3.5024   -2.0354    0.3517 C   0  0  0  0  0  0  0  0  0  0  0  0
   -2.8527   -1.9638   -0.9749 C   0  0  0  0  0  0  0  0  0  0  0  0
   -2.5540   -0.6251   -1.5221 C   0  0  0  0  0  0  0  0  0  0  0  0
   -2.3293   -0.4750   -2.7241 O   0  0  0  0  0  0  0  0  0  0  0  0
  1  2  2  0
  2  3  1  0
  3  4  2  0
  4  5  1  0
  5  6  2  0
  6  7  1  0
  7  8  1  0
  7  9  1  0
  7 10  1  0
  6 11  1  0
 11 12  2  0
 12 13  1  0
 13 14  2  0
 13 15  1  0
  2 16  1  0
 16 17  1  0
 17 18  2  0
 17 19  1  0
 19 20  1  0
 20 21  1  0
 21 22  1  0
 22 23  2  0
 12  3  1  0
 22 16  1  0
M  CHG  2  13   1  15  -1
M  END
>  <zinc_id>  (59) 
ZINC000100014475

>  <smiles>  (59) 
O=C1CCCC(=O)C1C(=O)c1ccc(C(F)(F)F)cc1[N+](=O)[O-]

$$$$

     RDKit          3D

 24 27  0  0  0  0  0  0  0  0999 V2000
   -5.4487    1.3843    0.6666 C   0  0  0  0  0  0  0  0  0  0  0  0
   -4.6570    0.8411    0.3636 C   0  0  0  0  0  0  0  0  0  0  0  0
   -3.5207    0.0349   -0.1147 C   0  0  2  0  0  0  0  0  0  0  0  0
   -3.8892   -0.5343   -1.3682 O   0  0  0  0  0  0  0  0  0  0  0  0
   -3.2996   -1.2192    0.7532 C   0  0  0  0  0  0  0  0  0  0  0  0
   -1.8007   -1.5942    0.5365 C   0  0  0  0  0  0  0  0  0  0  0  0
   -1.7487   -0.8332   -0.8581 C   0  0  2  0  0  0  0  0  0  0  0  0
   -0.1576   -0.5929   -1.1651 C   0  0  2  0  0  0  0  0  0  0  0  0
    0.2218   -2.1407   -0.8592 C   0  0  0  0  0  0  0  0  0  0  0  0
    1.5510   -2.2735   -0.3198 C   0  0  0  0  0  0  0  0  0  0  0  0
    2.4125   -1.1412   -0.2418 C   0  0  0  0  0  0  0  0  0  0  0  0
    3.6934   -1.2317   -0.0763 C   0  0  0  0  0  0  0  0  0  0  0  0
    4.4993   -0.0239   -0.0068 C   0  0  0  0  0  0  0  0  0  0  0  0
    5.5706    0.2087   -0.6852 N   0  0  0  0  0  0  0  0  0  0  0  0
    6.1978    1.4129   -0.4827 O   0  0  0  0  0  0  0  0  0  0  0  0
    3.9487    0.9834    0.9799 C   0  0  0  0  0  0  0  0  0  0  0  0
    2.4620    0.7833    1.1278 C   0  0  0  0  0  0  0  0  0  0  0  0
    1.9287    0.3334   -0.3573 C   0  0  2  0  0  0  0  0  0  0  0  0
    0.3833    0.0458    0.2391 C   0  0  1  0  0  0  0  0  0  0  0  0
   -0.0740    1.5453   -0.1052 C   0  0  0  0  0  0  0  0  0  0  0  0
   -1.4512    1.5324   -0.7434 C   0  0  0  0  0  0  0  0  0  0  0  0
   -2.2005    0.5603   -0.1296 C   0  0  1  0  0  0  0  0  0  0  0  0
   -1.9004    0.5619    1.3163 C   0  0  0  0  0  0  0  0  0  0  0  0
   -2.7207    1.3573    2.1563 C   0  0  0  0  0  0  0  0  0  0  0  0
  1  2  3  0
  2  3  1  0
  3  4  1  6
  3  5  1  0
  5  6  1  0
  7  6  1  1
  7  8  1  0
  8  9  1  1
  9 10  1  0
 10 11  1  0
 11 12  2  0
 12 13  1  0
 13 14  2  3
 14 15  1  0
 13 16  1  0
 16 17  1  0
 18 17  1  1
 18 19  1  0
 19 20  1  6
 20 21  1  0
 21 22  1  0
 22 23  1  1
 23 24  1  0
 22  3  1  0
 22  7  1  0
 19  8  1  0
 18 11  1  0
M  END
>  <zinc_id>  (60) 
ZINC000256433952

>  <smiles>  (60) 
C#C[C@]1(O)CC[C@@H]2[C@@H]3CCC4=CC(=NO)CC[C@@H]4[C@H]3CC[C@]21CC

$$$$

     RDKit          3D

 20 23  0  0  0  0  0  0  0  0999 V2000
   -0.1368    4.1458    1.2214 C   0  0  0  0  0  0  0  0  0  0  0  0
   -0.0282    3.0097    0.5684 N   0  0  0  0  0  0  0  0  0  0  0  0
   -1.2005    2.4346   -0.0406 C   0  0  0  0  0  0  0  0  0  0  0  0
   -0.4331    1.1503   -0.6613 C   0  0  2  0  0  0  0  0  0  0  0  0
   -1.6409    0.1545   -0.8113 C   0  0  0  0  0  0  0  0  0  0  0  0
   -2.8489    0.7466   -0.7116 C   0  0  0  0  0  0  0  0  0  0  0  0
   -3.9404   -0.0774   -0.8759 C   0  0  0  0  0  0  0  0  0  0  0  0
   -3.7871   -1.4253   -1.1268 C   0  0  0  0  0  0  0  0  0  0  0  0
   -2.5097   -1.9973   -1.2215 C   0  0  0  0  0  0  0  0  0  0  0  0
   -1.4355   -1.1728   -1.0567 C   0  0  0  0  0  0  0  0  0  0  0  0
   -0.1632   -1.8090   -1.1596 O   0  0  0  0  0  0  0  0  0  0  0  0
    0.9325   -1.4001   -0.3508 C   0  0  0  0  0  0  0  0  0  0  0  0
    2.0033   -2.2212   -0.5756 C   0  0  0  0  0  0  0  0  0  0  0  0
    3.2112   -2.0067    0.1194 C   0  0  0  0  0  0  0  0  0  0  0  0
    3.2879   -0.9702    1.0141 C   0  0  0  0  0  0  0  0  0  0  0  0
    4.7843   -0.6860    1.8904 Cl  0  0  0  0  0  0  0  0  0  0  0  0
    2.1648   -0.1544    1.2122 C   0  0  0  0  0  0  0  0  0  0  0  0
    1.0050   -0.3620    0.5436 C   0  0  0  0  0  0  0  0  0  0  0  0
   -0.0866    0.6579    0.9269 C   0  0  1  0  0  0  0  0  0  0  0  0
    0.8219    1.9828    1.0954 C   0  0  0  0  0  0  0  0  0  0  0  0
  1  2  1  0
  2  3  1  0
  4  3  1  1
  4  5  1  0
  5  6  2  0
  6  7  1  0
  7  8  2  0
  8  9  1  0
  9 10  2  0
 10 11  1  0
 11 12  1  0
 12 13  2  0
 13 14  1  0
 14 15  2  0
 15 16  1  0
 15 17  1  0
 17 18  2  0
 18 19  1  0
 19 20  1  1
 20  2  1  0
 19  4  1  0
 10  5  1  0
 18 12  1  0
M  END
>  <zinc_id>  (61) 
ZINC000000002299

>  <smiles>  (61) 
CN1C[C@@H]2c3ccccc3Oc3ccc(Cl)cc3[C@H]2C1

$$$$

     RDKit          2D

 10 11  0  0  0  0  0  0  0  0999 V2000
   -3.6494    1.2396    0.0000 N   0  0  0  0  0  0  0  0  0  0  0  0
   -2.6887    0.0876    0.0000 C   0  0  0  0  0  0  0  0  0  0  0  0
   -2.4327   -1.3904    0.0000 C   0  0  0  0  0  0  0  0  0  0  0  0
   -1.2807   -0.4298    0.0000 C   0  0  0  0  0  0  0  0  0  0  0  0
    0.1973   -0.1738    0.0000 C   0  0  0  0  0  0  0  0  0  0  0  0
    1.1579   -1.3258    0.0000 C   0  0  0  0  0  0  0  0  0  0  0  0
    2.6359   -1.0698    0.0000 C   0  0  0  0  0  0  0  0  0  0  0  0
    3.1533    0.3382    0.0000 C   0  0  0  0  0  0  0  0  0  0  0  0
    2.1926    1.4902    0.0000 C   0  0  0  0  0  0  0  0  0  0  0  0
    0.7146    1.2342    0.0000 C   0  0  0  0  0  0  0  0  0  0  0  0
  2  1  1  6
  2  3  1  0
  3  4  1  0
  4  5  1  6
  5  6  2  0
  6  7  1  0
  7  8  2  0
  8  9  1  0
  9 10  2  0
  4  2  1  0
 10  5  1  0
M  END
>  <zinc_id>  (62) 
ZINC000000896666

>  <smiles>  (62) 
N[C@H]1C[C@H]1c1ccccc1

$$$$

     RDKit          3D

 23 23  0  0  0  0  0  0  0  0999 V2000
    7.2817   -0.4215   -0.9436 C   0  0  0  0  0  0  0  0  0  0  0  0
    6.0592    0.3939   -0.8989 C   0  0  0  0  0  0  0  0  0  0  0  0
    6.5427    1.7955   -0.5057 C   0  0  0  0  0  0  0  0  0  0  0  0
    5.1577   -0.1390    0.1444 C   0  0  0  0  0  0  0  0  0  0  0  0
    5.5554   -0.8727    1.1171 O   0  0  0  0  0  0  0  0  0  0  0  0
    3.7870    0.0920    0.1891 O   0  0  0  0  0  0  0  0  0  0  0  0
    2.9235   -0.5782    1.1947 C   0  0  1  0  0  0  0  0  0  0  0  0
    2.4983    0.9395    1.9928 C   0  0  0  0  0  0  0  0  0  0  0  0
    1.5742   -0.3102    0.3753 O   0  0  0  0  0  0  0  0  0  0  0  0
    0.4448   -0.8678    0.9197 C   0  0  0  0  0  0  0  0  0  0  0  0
    0.5546   -1.5927    1.9048 O   0  0  0  0  0  0  0  0  0  0  0  0
   -0.8051   -0.5803    0.3390 N   0  0  0  0  0  0  0  0  0  0  0  0
   -2.0624   -1.1078    0.7569 C   0  0  0  0  0  0  0  0  0  0  0  0
   -3.1780   -0.3808   -0.0120 C   0  0  0  0  0  0  0  0  0  0  0  0
   -4.5312   -1.0071    0.3286 C   0  0  0  0  0  0  0  0  0  0  0  0
   -5.6544   -0.4238   -0.3494 C   0  0  0  0  0  0  0  0  0  0  0  0
   -5.7892    0.5652   -1.0622 O   0  0  0  0  0  0  0  0  0  0  0  0
   -6.8682   -1.2079   -0.1588 O   0  0  0  0  0  0  0  0  0  0  0  0
   -3.2079    1.0039    0.7262 C   0  0  0  0  0  0  0  0  0  0  0  0
   -3.2874    2.1272   -0.2469 C   0  0  0  0  0  0  0  0  0  0  0  0
   -2.0598    2.0566   -1.0842 C   0  0  0  0  0  0  0  0  0  0  0  0
   -2.0434    0.7857   -1.8930 C   0  0  0  0  0  0  0  0  0  0  0  0
   -2.8921   -0.2698   -1.3923 C   0  0  0  0  0  0  0  0  0  0  0  0
  1  2  1  0
  2  3  1  0
  2  4  1  0
  4  5  2  0
  4  6  1  0
  6  7  1  0
  7  8  1  1
  7  9  1  0
  9 10  1  0
 10 11  2  0
 10 12  1  0
 12 13  1  0
 13 14  1  0
 14 15  1  0
 15 16  1  0
 16 17  2  0
 16 18  1  0
 14 19  1  0
 19 20  1  0
 20 21  1  0
 21 22  1  0
 22 23  1  0
 23 14  1  0
M  END
>  <zinc_id>  (63) 
ZINC000001554010

>  <smiles>  (63) 
CC(C)C(=O)O[C@@H](C)OC(=O)NCC1(CC(=O)O)CCCCC1

$$$$

     RDKit          3D

 12 12  0  0  0  0  0  0  0  0999 V2000
   -0.7563    2.2379    0.6670 Cl  0  0  0  0  0  0  0  0  0  0  0  0
    0.0529    1.3789   -0.7804 C   0  0  1  0  0  0  0  0  0  0  0  0
    1.1429    0.5866    0.1206 C   0  0  2  0  0  0  0  0  0  0  0  0
    2.6225    1.0890   -0.8989 Cl  0  0  0  0  0  0  0  0  0  0  0  0
    1.0851   -0.9083   -0.4794 C   0  0  1  0  0  0  0  0  0  0  0  0
    2.5694   -1.5669    0.3956 Cl  0  0  0  0  0  0  0  0  0  0  0  0
   -0.0540   -1.5054    0.5062 C   0  0  1  0  0  0  0  0  0  0  0  0
    0.6452   -0.9803    2.1638 Cl  0  0  0  0  0  0  0  0  0  0  0  0
   -1.1821   -0.3390    0.4404 C   0  0  2  0  0  0  0  0  0  0  0  0
   -2.5863   -1.4989    0.0587 Cl  0  0  0  0  0  0  0  0  0  0  0  0
   -1.0259    0.2075   -1.0690 C   0  0  1  0  0  0  0  0  0  0  0  0
   -2.5134    1.2989   -1.1247 Cl  0  0  0  0  0  0  0  0  0  0  0  0
  2  1  1  1
  2  3  1  0
  3  4  1  6
  3  5  1  0
  5  6  1  1
  5  7  1  0
  7  8  1  1
  7  9  1  0
  9 10  1  6
  9 11  1  0
 11 12  1  1
 11  2  1  0
M  END
>  <zinc_id>  (64) 
ZINC000245204924

>  <smiles>  (64) 
Cl[C@H]1[C@H](Cl)[C@@H](Cl)[C@@H](Cl)[C@H](Cl)[C@H]1Cl

$$$$

     RDKit          3D

 32 32  0  0  0  0  0  0  0  0999 V2000
    1.5791   -5.5423    0.6115 C   0  0  0  0  0  0  0  0  0  0  0  0
    1.7720   -5.5478    0.3431 O   0  0  0  0  0  0  0  0  0  0  0  0
    1.4799   -5.2912   -0.9771 C   0  0  0  0  0  0  0  0  0  0  0  0
    0.9879   -3.9177   -1.1068 C   0  0  0  0  0  0  0  0  0  0  0  0
    0.6599   -3.4817   -2.2324 O   0  0  0  0  0  0  0  0  0  0  0  0
    0.8819   -3.0867    0.0248 N   0  0  0  0  0  0  0  0  0  0  0  0
    0.4042   -1.7699   -0.1384 C   0  0  0  0  0  0  0  0  0  0  0  0
    1.2938   -0.7558   -0.3940 C   0  0  0  0  0  0  0  0  0  0  0  0
    3.3420   -1.1577   -0.5410 I   0  0  0  0  0  0  0  0  0  0  0  0
    0.8358    0.5517   -0.5577 C   0  0  0  0  0  0  0  0  0  0  0  0
    1.7027    1.6722   -0.8282 C   0  0  0  0  0  0  0  0  0  0  0  0
    1.1934    2.8118   -0.9593 O   0  0  0  0  0  0  0  0  0  0  0  0
    3.1106    1.6039   -0.9631 N   0  0  0  0  0  0  0  0  0  0  0  0
    3.8883    2.8331   -1.2419 C   0  0  0  0  0  0  0  0  0  0  0  0
    5.4046    2.2205   -1.3002 C   0  0  1  0  0  0  0  0  0  0  0  0
    6.0623    3.5570   -1.5839 O   0  0  0  0  0  0  0  0  0  0  0  0
    5.6558    2.3024    0.3189 C   0  0  0  0  0  0  0  0  0  0  0  0
    5.0440    3.4099    0.8078 O   0  0  0  0  0  0  0  0  0  0  0  0
   -0.5224    0.7920   -0.4560 C   0  0  0  0  0  0  0  0  0  0  0  0
   -1.2674    2.7456   -0.6942 I   0  0  0  0  0  0  0  0  0  0  0  0
   -1.4275   -0.2109   -0.2005 C   0  0  0  0  0  0  0  0  0  0  0  0
   -2.8470    0.0245   -0.0917 C   0  0  0  0  0  0  0  0  0  0  0  0
   -3.5668   -0.0471   -1.1143 O   0  0  0  0  0  0  0  0  0  0  0  0
   -3.5071    0.3461    1.1568 N   0  0  0  0  0  0  0  0  0  0  0  0
   -2.7383    0.4462    2.3811 C   0  0  0  0  0  0  0  0  0  0  0  0
   -4.9248    0.5213    1.2274 C   0  0  0  0  0  0  0  0  0  0  0  0
   -5.2691    2.0750    0.8654 C   0  0  1  0  0  0  0  0  0  0  0  0
   -6.7972    1.7733    0.9953 O   0  0  0  0  0  0  0  0  0  0  0  0
   -5.2319    2.6080    2.4127 C   0  0  0  0  0  0  0  0  0  0  0  0
   -3.9679    3.0853    2.6424 O   0  0  0  0  0  0  0  0  0  0  0  0
   -0.9403   -1.5149   -0.0405 C   0  0  0  0  0  0  0  0  0  0  0  0
   -2.2905   -3.0559    0.3479 I   0  0  0  0  0  0  0  0  0  0  0  0
  1  2  1  0
  2  3  1  0
  3  4  1  0
  4  5  2  0
  4  6  1  0
  6  7  1  0
  7  8  2  0
  8  9  1  0
  8 10  1  0
 10 11  1  0
 11 12  2  0
 11 13  1  0
 13 14  1  0
 14 15  1  0
 15 16  1  6
 15 17  1  0
 17 18  1  0
 10 19  2  0
 19 20  1  0
 19 21  1  0
 21 22  1  0
 22 23  2  0
 22 24  1  0
 24 25  1  0
 24 26  1  0
 26 27  1  0
 27 28  1  1
 27 29  1  0
 29 30  1  0
 21 31  2  0
 31 32  1  0
 31  7  1  0
M  END
>  <zinc_id>  (65) 
ZINC000003830960

>  <smiles>  (65) 
COCC(=O)Nc1c(I)c(C(=O)NC[C@@H](O)CO)c(I)c(C(=O)N(C)C[C@@H](O)CO)c1I

$$$$

     RDKit          3D

 32 36  0  0  0  0  0  0  0  0999 V2000
   -6.2908    3.4257   -0.4669 C   0  0  0  0  0  0  0  0  0  0  0  0
   -5.0431    2.9325   -0.6704 C   0  0  0  0  0  0  0  0  0  0  0  0
   -4.2093    3.6270   -1.3130 O   0  0  0  0  0  0  0  0  0  0  0  0
   -4.6532    1.7118   -0.2064 O   0  0  0  0  0  0  0  0  0  0  0  0
   -3.3702    1.1366   -0.3821 C   0  0  0  0  0  0  0  0  0  0  0  0
   -3.3067   -0.1964    0.2546 C   0  0  0  0  0  0  0  0  0  0  0  0
   -4.2616   -0.6359    0.8146 O   0  0  0  0  0  0  0  0  0  0  0  0
   -2.0632   -0.9791    0.1961 C   0  0  1  0  0  0  0  0  0  0  0  0
   -2.0750   -2.2207    0.8365 N   0  0  0  0  0  0  0  0  0  0  0  0
   -2.3848   -3.2448    0.1968 C   0  0  0  0  0  0  0  0  0  0  0  0
   -2.5260   -4.7024    0.4675 C   0  0  0  0  0  0  0  0  0  0  0  0
   -2.6495   -2.8743   -1.0683 O   0  0  0  0  0  0  0  0  0  0  0  0
   -1.8849   -1.5489   -1.3086 C   0  0  2  0  0  0  0  0  0  0  0  0
   -0.4407   -2.2090   -1.0514 C   0  0  0  0  0  0  0  0  0  0  0  0
    0.1481   -1.3322    0.1448 C   0  0  1  0  0  0  0  0  0  0  0  0
    1.2902   -0.4488   -0.7126 C   0  0  2  0  0  0  0  0  0  0  0  0
    2.2288   -1.7219   -0.8964 C   0  0  0  0  0  0  0  0  0  0  0  0
    3.6408   -1.3088   -1.2084 C   0  0  0  0  0  0  0  0  0  0  0  0
    4.1448   -0.3024   -0.2110 C   0  0  0  0  0  0  0  0  0  0  0  0
    5.2918   -0.3996    0.4061 C   0  0  0  0  0  0  0  0  0  0  0  0
    5.6332    0.6602    1.3442 C   0  0  0  0  0  0  0  0  0  0  0  0
    6.7437    0.5635    1.9399 O   0  0  0  0  0  0  0  0  0  0  0  0
    4.7381    1.7738    1.5819 C   0  0  0  0  0  0  0  0  0  0  0  0
    3.6078    1.8289    0.9450 C   0  0  0  0  0  0  0  0  0  0  0  0
    3.1880    0.8315    0.0018 C   0  0  1  0  0  0  0  0  0  0  0  0
    2.9149    1.2951   -1.3808 C   0  0  0  0  0  0  0  0  0  0  0  0
    2.0015    0.0271    0.6929 C   0  0  1  0  0  0  0  0  0  0  0  0
    0.9997    1.3076    1.1306 C   0  0  1  0  0  0  0  0  0  0  0  0
    0.8384    2.0006   -0.1783 O   0  0  0  0  0  0  0  0  0  0  0  0
   -0.4193    0.5706    1.2433 C   0  0  0  0  0  0  0  0  0  0  0  0
   -0.9056   -0.1195    0.0883 C   0  0  2  0  0  0  0  0  0  0  0  0
   -0.9258    0.5520   -1.2303 C   0  0  0  0  0  0  0  0  0  0  0  0
  1  2  1  0
  2  3  2  0
  2  4  1  0
  4  5  1  0
  5  6  1  0
  6  7  2  0
  8  6  1  6
  8  9  1  0
  9 10  2  0
 10 11  1  0
 10 12  1  0
 12 13  1  0
 13 14  1  1
 15 14  1  6
 15 16  1  0
 16 17  1  6
 17 18  1  0
 18 19  1  0
 19 20  2  0
 20 21  1  0
 21 22  2  0
 21 23  1  0
 23 24  2  0
 24 25  1  0
 25 26  1  6
 25 27  1  0
 27 28  1  1
 28 29  1  6
 28 30  1  0
 30 31  1  0
 31 32  1  6
 13  8  1  0
 31 15  1  0
 31  8  1  0
 27 16  1  0
 25 19  1  0
M  END
>  <zinc_id>  (66) 
ZINC000004212809

>  <smiles>  (66) 
CC(=O)OCC(=O)[C@@]12N=C(C)O[C@@H]1C[C@H]1[C@@H]3CCC4=CC(=O)C=C[C@]4(C)[C@H]3[C@@H](O)C[C@@]12C

$$$$

     RDKit          3D

  5  4  0  0  0  0  0  0  0  0999 V2000
   -1.8078   -0.6235    0.0478 C   0  0  0  0  0  0  0  0  0  0  0  0
   -0.4714    0.0400    0.0367 C   0  0  0  0  0  0  0  0  0  0  0  0
   -0.3859    1.2871    0.1800 O   0  0  0  0  0  0  0  0  0  0  0  0
    0.7430   -0.6886   -0.1326 N   0  0  0  0  0  0  0  0  0  0  0  0
    1.9220   -0.0151   -0.1319 O   0  0  0  0  0  0  0  0  0  0  0  0
  1  2  1  0
  2  3  2  0
  2  4  1  0
  4  5  1  0
M  END
>  <zinc_id>  (67) 
ZINC000004658603

>  <smiles>  (67) 
CC(=O)NO

$$$$

     RDKit          3D

 53 58  0  0  0  0  0  0  0  0999 V2000
   -3.4491   -0.6842   -0.3241 C   0  0  0  0  0  0  0  0  0  0  0  0
   -3.9263   -0.2660    1.0495 C   0  0  0  0  0  0  0  0  0  0  0  0
   -3.2519   -1.0800    2.1383 C   0  0  0  0  0  0  0  0  0  0  0  0
   -5.3860   -0.4601    1.0992 C   0  0  0  0  0  0  0  0  0  0  0  0
   -5.9349    0.7681    1.3661 C   0  0  0  0  0  0  0  0  0  0  0  0
   -7.3130    0.8047    1.4671 C   0  0  0  0  0  0  0  0  0  0  0  0
   -8.1084   -0.3036    1.3140 C   0  0  0  0  0  0  0  0  0  0  0  0
   -7.5684   -1.5443    1.0447 C   0  0  0  0  0  0  0  0  0  0  0  0
   -8.3540   -2.6670    0.8864 C   0  0  0  0  0  0  0  0  0  0  0  0
   -7.7727   -3.8880    0.6166 C   0  0  0  0  0  0  0  0  0  0  0  0
   -6.3986   -3.9467    0.5120 C   0  0  0  0  0  0  0  0  0  0  0  0
   -5.6205   -2.8186    0.6718 C   0  0  0  0  0  0  0  0  0  0  0  0
   -6.1973   -1.5947    0.9418 C   0  0  0  0  0  0  0  0  0  0  0  0
   -4.8831    1.7160    1.4849 N   0  0  0  0  0  0  0  0  0  0  0  0
   -5.0337    3.1505    1.7433 C   0  0  0  0  0  0  0  0  0  0  0  0
   -5.4668    3.8572    0.5291 C   0  0  0  0  0  0  0  0  0  0  0  0
   -6.7553    3.4928   -0.0963 C   0  0  0  0  0  0  0  0  0  0  0  0
   -7.0634    4.3016   -1.3335 C   0  0  0  0  0  0  0  0  0  0  0  0
   -8.6244    3.8017   -2.0227 S   0  0  0  0  0  0  0  0  0  0  0  0
   -8.5200    2.3466   -2.4277 O   0  0  0  0  0  0  0  0  0  0  0  0
   -9.7288    3.8915   -0.9969 O   0  0  0  0  0  0  0  0  0  0  0  0
   -8.9956    4.6781   -3.3959 O   0  0  0  0  0  0  0  0  0  0  0  0
   -3.7231    1.1620    1.3114 C   0  0  0  0  0  0  0  0  0  0  0  0
   -2.4461    1.8968    1.3801 C   0  0  0  0  0  0  0  0  0  0  0  0
   -1.2923    1.2839    1.1972 C   0  0  0  0  0  0  0  0  0  0  0  0
   -0.0764    2.0809    1.2816 C   0  0  0  0  0  0  0  0  0  0  0  0
    1.1254    1.5012    1.1035 C   0  0  0  0  0  0  0  0  0  0  0  0
    1.0977    0.0746    0.8321 C   0  0  0  0  0  0  0  0  0  0  0  0
    2.2382   -0.5523    0.6505 C   0  0  0  0  0  0  0  0  0  0  0  0
    3.4732    0.2040    0.7287 C   0  0  0  0  0  0  0  0  0  0  0  0
    4.6543   -0.3741    0.5551 C   0  0  0  0  0  0  0  0  0  0  0  0
    5.9612    0.1197    0.5794 N   0  0  0  0  0  0  0  0  0  0  0  0
    6.4010    1.4576    0.7044 C   0  0  0  0  0  0  0  0  0  0  0  0
    6.1996    2.3138   -0.4662 C   0  0  0  0  0  0  0  0  0  0  0  0
    4.8022    2.5145   -0.9141 C   0  0  0  0  0  0  0  0  0  0  0  0
    4.7039    3.4165   -2.1278 C   0  0  0  0  0  0  0  0  0  0  0  0
    5.6371    2.6215   -3.4229 S   0  0  0  0  0  0  0  0  0  0  0  0
    5.0339    1.2851   -3.6727 O   0  0  0  0  0  0  0  0  0  0  0  0
    5.5634    3.5269   -4.6197 O   0  0  0  0  0  0  0  0  0  0  0  0
    7.2399    2.4398   -2.9255 O   0  0  0  0  0  0  0  0  0  0  0  0
    6.9066   -0.9660    0.4194 C   0  0  0  0  0  0  0  0  0  0  0  0
    8.2813   -1.0245    0.3996 C   0  0  0  0  0  0  0  0  0  0  0  0
    8.9208   -2.2420    0.2528 C   0  0  0  0  0  0  0  0  0  0  0  0
    8.1617   -3.4033    0.1257 C   0  0  0  0  0  0  0  0  0  0  0  0
    8.7687   -4.6448   -0.0243 C   0  0  0  0  0  0  0  0  0  0  0  0
    8.0402   -5.8074   -0.1528 C   0  0  0  0  0  0  0  0  0  0  0  0
    6.6628   -5.7514   -0.1338 C   0  0  0  0  0  0  0  0  0  0  0  0
    6.0488   -4.5320    0.0136 C   0  0  0  0  0  0  0  0  0  0  0  0
    6.7902   -3.3671    0.1424 C   0  0  0  0  0  0  0  0  0  0  0  0
    6.1766   -2.1160    0.2922 C   0  0  0  0  0  0  0  0  0  0  0  0
    4.7359   -1.8476    0.3062 C   0  0  0  0  0  0  0  0  0  0  0  0
    4.0912   -2.6320    1.4115 C   0  0  0  0  0  0  0  0  0  0  0  0
    4.1742   -2.1940   -1.0599 C   0  0  0  0  0  0  0  0  0  0  0  0
  1  2  1  0
  2  3  1  0
  2  4  1  0
  4  5  2  0
  5  6  1  0
  6  7  2  0
  7  8  1  0
  8  9  2  0
  9 10  1  0
 10 11  2  0
 11 12  1  0
 12 13  2  0
  5 14  1  0
 14 15  1  0
 15 16  1  0
 16 17  1  0
 17 18  1  0
 18 19  1  0
 19 20  2  0
 19 21  2  0
 19 22  1  0
 14 23  2  0
 23 24  1  0
 24 25  2  0
 25 26  1  0
 26 27  2  0
 27 28  1  0
 28 29  2  0
 29 30  1  0
 30 31  2  0
 31 32  1  0
 32 33  1  0
 33 34  1  0
 34 35  1  0
 35 36  1  0
 36 37  1  0
 37 38  2  0
 37 39  2  0
 37 40  1  0
 32 41  1  0
 41 42  2  0
 42 43  1  0
 43 44  2  0
 44 45  1  0
 45 46  2  0
 46 47  1  0
 47 48  2  0
 48 49  1  0
 49 50  2  0
 50 51  1  0
 51 52  1  0
 51 53  1  0
 23  2  1  0
 51 31  1  0
 13  4  1  0
 50 41  1  0
 13  8  1  0
 49 44  1  0
M  CHG  1  14   1
M  END
>  <zinc_id>  (68) 
ZINC000008101127

>  <smiles>  (68) 
CC1(C)C(C=C/C=C\C=C/C=C2/N(CCCCS(=O)(=O)O)c3ccc4ccccc4c3C2(C)C)=[N+](CCCCS(=O)(=O)O)c2ccc3ccccc3c21

$$$$

     RDKit          3D

 26 27  0  0  0  0  0  0  0  0999 V2000
   -5.8880    3.9927    1.5719 C   0  0  0  0  0  0  0  0  0  0  0  0
   -5.1364    2.7333    1.5317 C   0  0  0  0  0  0  0  0  0  0  0  0
   -4.5057    1.7008    1.4951 C   0  0  0  0  0  0  0  0  0  0  0  0
   -3.7328    0.4424    1.4704 C   0  0  0  0  0  0  0  0  0  0  0  0
   -4.8113   -0.6118    0.8937 C   0  0  2  0  0  0  0  0  0  0  0  0
   -3.8547   -1.8895    0.9241 C   0  0  0  0  0  0  0  0  0  0  0  0
   -4.6585   -0.1351   -0.7364 C   0  0  2  0  0  0  0  0  0  0  0  0
   -5.6670   -1.1400   -1.2766 O   0  0  0  0  0  0  0  0  0  0  0  0
   -3.3696   -0.9996   -1.1546 C   0  0  0  0  0  0  0  0  0  0  0  0
   -2.2157   -0.3525   -1.2100 C   0  0  0  0  0  0  0  0  0  0  0  0
   -0.9287   -1.1822   -1.6201 C   0  0  1  0  0  0  0  0  0  0  0  0
   -0.2541    0.1168   -2.4902 C   0  0  2  0  0  0  0  0  0  0  0  0
   -0.3203   -0.6529   -3.8202 O   0  0  0  0  0  0  0  0  0  0  0  0
    1.2871   -0.4582   -2.1584 C   0  0  0  0  0  0  0  0  0  0  0  0
    0.8635    0.3586   -0.8103 C   0  0  2  0  0  0  0  0  0  0  0  0
    2.1683   -0.0441    0.0650 C   0  0  0  0  0  0  0  0  0  0  0  0
    2.2952   -1.4629   -0.1764 C   0  0  0  0  0  0  0  0  0  0  0  0
    3.4065   -2.1416   -0.0297 C   0  0  0  0  0  0  0  0  0  0  0  0
    4.7072   -1.6255    0.3943 C   0  0  0  0  0  0  0  0  0  0  0  0
    4.7577   -0.1613    0.6888 C   0  0  0  0  0  0  0  0  0  0  0  0
    6.1534    0.2330    1.1130 C   0  0  0  0  0  0  0  0  0  0  0  0
    6.1856    1.6683    1.3973 C   0  0  0  0  0  0  0  0  0  0  0  0
    5.1506    2.3529    1.2708 O   0  0  0  0  0  0  0  0  0  0  0  0
    7.3855    2.2331    1.8054 O   0  0  0  0  0  0  0  0  0  0  0  0
    1.0400   -2.0590   -0.6038 C   0  0  0  0  0  0  0  0  0  0  0  0
   -0.0578   -0.9159   -0.2180 C   0  0  2  0  0  0  0  0  0  0  0  0
  1  2  1  0
  2  3  3  0
  3  4  1  0
  4  5  1  0
  5  6  1  6
  5  7  1  0
  7  8  1  6
  7  9  1  0
  9 10  2  0
 11 10  1  1
 11 12  1  0
 12 13  1  6
 12 14  1  0
 15 14  1  6
 15 16  1  0
 16 17  1  0
 17 18  2  0
 18 19  1  0
 19 20  1  0
 20 21  1  0
 21 22  1  0
 22 23  2  0
 22 24  1  0
 17 25  1  0
 26 25  1  6
 26 11  1  0
 26 15  1  0
M  END
>  <zinc_id>  (69) 
ZINC000013587680

>  <smiles>  (69) 
CC#CC[C@H](C)[C@H](O)/C=C/[C@@H]1[C@H]2C/C(=C/CCCC(=O)O)C[C@H]2C[C@H]1O

$$$$

     RDKit          3D

 51 53  0  0  0  0  0  0  0  0999 V2000
    8.5837   -0.0938    2.0063 O   0  0  0  0  0  0  0  0  0  0  0  0
    9.0538   -0.2634    1.1800 C   0  0  0  0  0  0  0  0  0  0  0  0
   10.3066    0.2983    0.8837 O   0  0  0  0  0  0  0  0  0  0  0  0
    8.4986   -1.1575    0.0989 C   0  0  0  0  0  0  0  0  0  0  0  0
    7.2375   -1.7079    0.4398 N   0  0  0  0  0  0  0  0  0  0  0  0
    6.1969   -0.7974    0.5061 C   0  0  0  0  0  0  0  0  0  0  0  0
    5.7077   -0.1345   -0.7020 C   0  0  0  0  0  0  0  0  0  0  0  0
    4.6250    0.7988   -0.5951 N   0  0  0  0  0  0  0  0  0  0  0  0
    5.0684    1.9706    0.1008 C   0  0  0  0  0  0  0  0  0  0  0  0
    5.2986    1.9060    1.5208 C   0  0  0  0  0  0  0  0  0  0  0  0
    6.0324    2.8431    2.0196 O   0  0  0  0  0  0  0  0  0  0  0  0
    4.8187    0.9601    2.3984 O   0  0  0  0  0  0  0  0  0  0  0  0
    3.5325    0.2308    0.2006 C   0  0  0  0  0  0  0  0  0  0  0  0
    2.3611    1.3246    0.0088 C   0  0  2  0  0  0  0  0  0  0  0  0
    1.2958    0.5819    0.9863 C   0  0  0  0  0  0  0  0  0  0  0  0
    0.0834    0.9662    0.6612 O   0  0  0  0  0  0  0  0  0  0  0  0
   -1.3093    0.5932    1.2898 P   0  0  2  0  0  0  0  0  0  0  0  0
   -2.0806    1.8484    1.7146 O   0  0  0  0  0  0  0  0  0  0  0  0
   -1.2017   -0.3732    2.6726 O   0  0  0  0  0  0  0  0  0  0  0  0
   -2.2232   -0.1480    0.0848 O   0  0  0  0  0  0  0  0  0  0  0  0
   -3.4929    0.2123   -0.0477 C   0  0  0  0  0  0  0  0  0  0  0  0
   -4.3029   -0.4363   -1.1072 C   0  0  0  0  0  0  0  0  0  0  0  0
   -5.4975   -1.0900   -0.4407 C   0  0  0  0  0  0  0  0  0  0  0  0
   -6.4039   -0.0599    0.1599 C   0  0  0  0  0  0  0  0  0  0  0  0
   -7.0893   -0.6682    1.3327 C   0  0  0  0  0  0  0  0  0  0  0  0
   -7.8982    0.1196    2.1398 C   0  0  0  0  0  0  0  0  0  0  0  0
   -8.5177   -0.4589    3.2171 C   0  0  0  0  0  0  0  0  0  0  0  0
   -8.3648   -1.7989    3.5273 C   0  0  0  0  0  0  0  0  0  0  0  0
   -7.5601   -2.5723    2.7207 C   0  0  0  0  0  0  0  0  0  0  0  0
   -6.9406   -1.9845    1.6393 C   0  0  0  0  0  0  0  0  0  0  0  0
   -7.3876    0.4120   -0.8528 C   0  0  0  0  0  0  0  0  0  0  0  0
   -8.2479    1.4366   -0.5389 C   0  0  0  0  0  0  0  0  0  0  0  0
   -9.1532    1.8638   -1.4762 C   0  0  0  0  0  0  0  0  0  0  0  0
   -9.2052    1.2771   -2.7200 C   0  0  0  0  0  0  0  0  0  0  0  0
   -8.3277    0.2468   -3.0115 C   0  0  0  0  0  0  0  0  0  0  0  0
   -7.4167   -0.1976   -2.0966 C   0  0  0  0  0  0  0  0  0  0  0  0
   -5.6473    1.1398    0.7112 C   0  0  0  0  0  0  0  0  0  0  0  0
   -4.2496    0.7282    1.1181 C   0  0  0  0  0  0  0  0  0  0  0  0
    1.8305    0.7185   -1.3203 N   0  0  0  0  0  0  0  0  0  0  0  0
    2.6946    0.8483   -2.3856 C   0  0  0  0  0  0  0  0  0  0  0  0
    2.9270    2.1532   -2.9843 C   0  0  0  0  0  0  0  0  0  0  0  0
    3.7424    2.2311   -3.9539 O   0  0  0  0  0  0  0  0  0  0  0  0
    2.3329    3.3418   -2.5898 O   0  0  0  0  0  0  0  0  0  0  0  0
    1.1494   -0.4700   -1.0952 C   0  0  0  0  0  0  0  0  0  0  0  0
    0.6573   -1.0298   -2.3600 C   0  0  0  0  0  0  0  0  0  0  0  0
    0.8284   -0.5056   -3.4921 O   0  0  0  0  0  0  0  0  0  0  0  0
   -0.0561   -2.2296   -2.3384 O   0  0  0  0  0  0  0  0  0  0  0  0
    7.0325   -3.0005   -0.0189 C   0  0  0  0  0  0  0  0  0  0  0  0
    6.9259   -3.2232   -1.4543 C   0  0  0  0  0  0  0  0  0  0  0  0
    6.6639   -4.3995   -1.8500 O   0  0  0  0  0  0  0  0  0  0  0  0
    7.0885   -2.2506   -2.4182 O   0  0  0  0  0  0  0  0  0  0  0  0
  1  2  2  0
  2  3  1  0
  2  4  1  0
  4  5  1  0
  5  6  1  0
  6  7  1  0
  7  8  1  0
  8  9  1  0
  9 10  1  0
 10 11  2  0
 10 12  1  0
  8 13  1  0
 14 13  1  1
 14 15  1  0
 15 16  1  0
 16 17  1  0
 17 18  2  0
 17 19  1  1
 17 20  1  0
 20 21  1  0
 21 22  1  0
 22 23  1  0
 23 24  1  0
 24 25  1  0
 25 26  2  0
 26 27  1  0
 27 28  2  0
 28 29  1  0
 29 30  2  0
 24 31  1  0
 31 32  2  0
 32 33  1  0
 33 34  2  0
 34 35  1  0
 35 36  2  0
 24 37  1  0
 37 38  1  0
 14 39  1  0
 39 40  1  0
 40 41  1  0
 41 42  2  0
 41 43  1  0
 39 44  1  0
 44 45  1  0
 45 46  2  0
 45 47  1  0
  5 48  1  0
 48 49  1  0
 49 50  2  0
 49 51  1  0
 38 21  1  0
 30 25  1  0
 36 31  1  0
M  END
>  <zinc_id>  (70) 
ZINC000028108825

>  <smiles>  (70) 
O=C(O)CN(CCN(CC(=O)O)C[C@H](CO[P@](=O)(O)OC1CCC(c2ccccc2)(c2ccccc2)CC1)N(CC(=O)O)CC(=O)O)CC(=O)O

$$$$

     RDKit          2D

 36 40  0  0  0  0  0  0  0  0999 V2000
   -4.0552    4.4944    0.0000 C   0  0  0  0  0  0  0  0  0  0  0  0
   -3.1161    3.3248    0.0000 C   0  0  0  0  0  0  0  0  0  0  0  0
   -3.6595    1.9267    0.0000 C   0  0  0  0  0  0  0  0  0  0  0  0
   -4.8693    2.8134    0.0000 C   0  0  0  0  0  0  0  0  0  0  0  0
   -2.1684    1.7637    0.0000 C   0  0  0  0  0  0  0  0  0  0  0  0
   -1.2292    0.5940    0.0000 C   0  0  0  0  0  0  0  0  0  0  0  0
    0.2108    1.0141    0.0000 O   0  0  0  0  0  0  0  0  0  0  0  0
    1.2945   -0.0230    0.0000 C   0  0  0  0  0  0  0  0  0  0  0  0
    0.9383   -1.4801    0.0000 O   0  0  0  0  0  0  0  0  0  0  0  0
    2.7345    0.3971    0.0000 C   0  0  0  0  0  0  0  0  0  0  0  0
    3.8183   -0.6400    0.0000 S   0  0  0  0  0  0  0  0  0  0  0  0
    5.2583   -0.2199    0.0000 C   0  0  0  0  0  0  0  0  0  0  0  0
    6.3420   -1.2570    0.0000 C   0  0  0  0  0  0  0  0  0  0  0  0
    7.7820   -0.8369    0.0000 C   0  0  0  0  0  0  0  0  0  0  0  0
    9.0217    0.0075    0.0000 C   0  0  0  0  0  0  0  0  0  0  0  0
    8.6017    1.4475    0.0000 C   0  0  0  0  0  0  0  0  0  0  0  0
    7.1024    1.4930    0.0000 C   0  0  0  0  0  0  0  0  0  0  0  0
    5.6145    1.2372    0.0000 C   0  0  0  0  0  0  0  0  0  0  0  0
    6.5958    0.0812    0.0000 N   0  0  0  0  0  0  0  0  0  0  0  0
    5.7992    0.0497    0.0000 C   0  0  0  0  0  0  0  0  0  0  0  0
   -1.3922   -0.8971    0.0000 C   0  0  0  0  0  0  0  0  0  0  0  0
   -0.0770   -1.6183    0.0000 C   0  0  0  0  0  0  0  0  0  0  0  0
   -2.5618   -1.8362    0.0000 C   0  0  0  0  0  0  0  0  0  0  0  0
   -2.2561   -3.3047    0.0000 C   0  0  0  0  0  0  0  0  0  0  0  0
   -0.8883   -3.9205    0.0000 O   0  0  0  0  0  0  0  0  0  0  0  0
   -3.5582   -4.0493    0.0000 C   0  0  0  0  0  0  0  0  0  0  0  0
   -4.6688   -3.0410    0.0000 C   0  0  0  0  0  0  0  0  0  0  0  0
   -4.0530   -1.6732    0.0000 C   0  0  0  0  0  0  0  0  0  0  0  0
   -4.3064   -0.1846    0.0000 C   0  0  0  0  0  0  0  0  0  0  0  0
   -3.2693    0.8991    0.0000 C   0  0  0  0  0  0  0  0  0  0  0  0
   -1.8123    0.5429    0.0000 C   0  0  0  0  0  0  0  0  0  0  0  0
   -0.7752    1.6267    0.0000 C   0  0  0  0  0  0  0  0  0  0  0  0
   -4.9921   -0.5036    0.0000 C   0  0  0  0  0  0  0  0  0  0  0  0
   -6.4321   -0.9236    0.0000 C   0  0  0  0  0  0  0  0  0  0  0  0
   -4.8291    0.9875    0.0000 C   0  0  0  0  0  0  0  0  0  0  0  0
   -6.1443    1.7087    0.0000 O   0  0  0  0  0  0  0  0  0  0  0  0
  1  2  2  0
  2  3  1  0
  3  4  1  1
  3  5  1  0
  5  6  1  0
  6  7  1  1
  7  8  1  0
  8  9  2  0
  8 10  1  0
 10 11  1  0
 12 11  1  1
 12 13  1  0
 14 13  1  6
 14 15  1  0
 15 16  1  0
 17 16  1  6
 17 18  1  0
 17 19  1  0
 19 20  1  0
  6 21  1  0
 21 22  1  6
 21 23  1  0
 23 24  1  6
 24 25  2  0
 24 26  1  0
 26 27  1  0
 28 27  1  6
 28 29  1  0
 29 30  1  0
 30 31  1  0
 31 32  1  1
 28 33  1  0
 33 34  1  1
 33 35  1  0
 35 36  1  6
 35  3  1  0
 18 12  1  0
 31 21  1  0
 19 14  1  0
 28 23  1  0
M  END
>  <zinc_id>  (71) 
ZINC000100013500

>  <smiles>  (71) 
C=C[C@]1(C)C[C@@H](OC(=O)CS[C@H]2C[C@@H]3CC[C@H](C2)N3C)[C@]2(C)[C@H](C)CC[C@]3(CCC(=O)[C@H]32)[C@@H](C)[C@@H]1O

$$$$

     RDKit          3D

 40 43  0  0  0  0  0  0  0  0999 V2000
    5.3362   -2.2030    1.8060 C   0  0  0  0  0  0  0  0  0  0  0  0
    4.6390   -3.2111    1.4437 C   0  0  0  0  0  0  0  0  0  0  0  0
    5.1740   -4.4813    1.5190 C   0  0  0  0  0  0  0  0  0  0  0  0
    6.4797   -4.6598    1.9922 O   0  0  0  0  0  0  0  0  0  0  0  0
    4.4635   -5.6407    1.1379 C   0  0  0  0  0  0  0  0  0  0  0  0
    3.1614   -5.4964    0.6608 C   0  0  0  0  0  0  0  0  0  0  0  0
    2.6633   -4.2414    0.5960 C   0  0  0  0  0  0  0  0  0  0  0  0
    3.3360   -3.0803    0.9663 C   0  0  0  0  0  0  0  0  0  0  0  0
    2.7594   -1.7532    0.9183 C   0  0  0  0  0  0  0  0  0  0  0  0
    3.1591   -0.9063    0.0376 O   0  0  0  0  0  0  0  0  0  0  0  0
    1.7854   -1.3351    1.7703 N   0  0  0  0  0  0  0  0  0  0  0  0
    1.1021    0.0372    1.8014 C   0  0  1  0  0  0  0  0  0  0  0  0
    1.9476    0.7737    0.6675 C   0  0  0  0  0  0  0  0  0  0  0  0
    1.2744    2.4494    0.5951 S   0  0  0  0  0  0  0  0  0  0  0  0
    2.1926    3.5202   -0.4824 C   0  0  0  0  0  0  0  0  0  0  0  0
    1.8965    3.5541   -1.8127 C   0  0  0  0  0  0  0  0  0  0  0  0
    2.6044    4.4169   -2.5981 C   0  0  0  0  0  0  0  0  0  0  0  0
    3.5828    5.2189   -2.0445 C   0  0  0  0  0  0  0  0  0  0  0  0
    3.8739    5.1731   -0.7055 C   0  0  0  0  0  0  0  0  0  0  0  0
    3.1664    4.3132    0.0733 C   0  0  0  0  0  0  0  0  0  0  0  0
   -0.2377   -0.5040    0.9239 C   0  0  2  0  0  0  0  0  0  0  0  0
    0.4120   -0.8947   -0.3156 O   0  0  0  0  0  0  0  0  0  0  0  0
   -0.8365    0.8751    0.4363 C   0  0  0  0  0  0  0  0  0  0  0  0
   -1.7012    0.5012   -0.6166 N   0  0  0  0  0  0  0  0  0  0  0  0
   -1.1295    0.0737   -1.7818 C   0  0  0  0  0  0  0  0  0  0  0  0
   -2.0140   -0.7951   -2.7542 C   0  0  1  0  0  0  0  0  0  0  0  0
   -2.8961   -1.6294   -1.7146 C   0  0  0  0  0  0  0  0  0  0  0  0
   -3.9773   -2.3469   -2.4850 C   0  0  0  0  0  0  0  0  0  0  0  0
   -4.9133   -1.2007   -2.8920 C   0  0  0  0  0  0  0  0  0  0  0  0
   -4.1393   -0.3739   -3.8414 C   0  0  0  0  0  0  0  0  0  0  0  0
   -3.0341    0.5078   -3.0913 C   0  0  1  0  0  0  0  0  0  0  0  0
   -3.7626    0.6352   -1.6740 C   0  0  0  0  0  0  0  0  0  0  0  0
   -2.7748    1.5845   -0.8254 C   0  0  1  0  0  0  0  0  0  0  0  0
   -3.5139    1.4087    0.5501 C   0  0  0  0  0  0  0  0  0  0  0  0
   -3.0081    0.7727    1.4577 O   0  0  0  0  0  0  0  0  0  0  0  0
   -4.7879    1.9993    0.7345 N   0  0  0  0  0  0  0  0  0  0  0  0
   -5.3843    1.7668    2.0657 C   0  0  0  0  0  0  0  0  0  0  0  0
   -6.7616    2.4101    2.0220 C   0  0  0  0  0  0  0  0  0  0  0  0
   -4.5627    2.4581    3.1301 C   0  0  0  0  0  0  0  0  0  0  0  0
   -5.5747    0.3032    2.3295 C   0  0  0  0  0  0  0  0  0  0  0  0
  1  2  1  0
  2  3  2  0
  3  4  1  0
  3  5  1  0
  5  6  2  0
  6  7  1  0
  7  8  2  0
  8  9  1  0
  9 10  2  0
  9 11  1  0
 11 12  1  0
 12 13  1  6
 13 14  1  0
 14 15  1  0
 15 16  2  0
 16 17  1  0
 17 18  2  0
 18 19  1  0
 19 20  2  0
 12 21  1  0
 21 22  1  6
 21 23  1  0
 23 24  1  0
 24 25  1  0
 26 25  1  1
 26 27  1  0
 27 28  1  0
 28 29  1  0
 29 30  1  0
 31 30  1  6
 31 32  1  0
 32 33  1  0
 33 34  1  1
 34 35  2  0
 34 36  1  0
 36 37  1  0
 37 38  1  0
 37 39  1  0
 37 40  1  0
  8  2  1  0
 20 15  1  0
 33 24  1  0
 31 26  1  0
M  END
>  <zinc_id>  (72) 
ZINC000003833846

>  <smiles>  (72) 
Cc1c(O)cccc1C(=O)N[C@@H](CSc1ccccc1)[C@H](O)CN1C[C@H]2CCCC[C@H]2C[C@H]1C(=O)NC(C)(C)C

$$$$

     RDKit          2D

 27 33  0  0  0  0  0  0  0  0999 V2000
   -2.4159   -1.6614    0.0000 C   0  0  0  0  0  0  0  0  0  0  0  0
   -1.7882   -0.2990    0.0000 C   0  0  0  0  0  0  0  0  0  0  0  0
   -1.1012   -1.6325    0.0000 C   0  0  0  0  0  0  0  0  0  0  0  0
    0.3971   -1.7042    0.0000 C   0  0  0  0  0  0  0  0  0  0  0  0
    1.2084   -0.4425    0.0000 C   0  0  0  0  0  0  0  0  0  0  0  0
    0.5214    0.8909    0.0000 C   0  0  0  0  0  0  0  0  0  0  0  0
    1.3326    2.1526    0.0000 C   0  0  0  0  0  0  0  0  0  0  0  0
    2.1439    3.4142    0.0000 C   0  0  0  0  0  0  0  0  0  0  0  0
    2.8309    2.0808    0.0000 C   0  0  0  0  0  0  0  0  0  0  0  0
    3.5179    0.7474    0.0000 C   0  0  0  0  0  0  0  0  0  0  0  0
    5.0162    0.6756    0.0000 C   0  0  0  0  0  0  0  0  0  0  0  0
    5.7032   -0.6578    0.0000 C   0  0  0  0  0  0  0  0  0  0  0  0
    7.2015   -0.7296    0.0000 O   0  0  0  0  0  0  0  0  0  0  0  0
    4.8919   -1.9195    0.0000 C   0  0  0  0  0  0  0  0  0  0  0  0
    3.3937   -1.8477    0.0000 C   0  0  0  0  0  0  0  0  0  0  0  0
    2.7067   -0.5143    0.0000 C   0  0  0  0  0  0  0  0  0  0  0  0
    1.8954   -1.7760    0.0000 C   0  0  0  0  0  0  0  0  0  0  0  0
   -0.9769    0.9626    0.0000 C   0  0  0  0  0  0  0  0  0  0  0  0
   -1.9261    2.1241    0.0000 C   0  0  0  0  0  0  0  0  0  0  0  0
   -3.0961    3.0628    0.0000 C   0  0  0  0  0  0  0  0  0  0  0  0
   -3.3241    1.5802    0.0000 C   0  0  0  0  0  0  0  0  0  0  0  0
   -3.2388    0.0826    0.0000 C   0  0  0  0  0  0  0  0  0  0  0  0
   -3.1536   -1.4149    0.0000 C   0  0  0  0  0  0  0  0  0  0  0  0
   -4.5515   -1.9588    0.0000 C   0  0  0  0  0  0  0  0  0  0  0  0
   -5.5007   -0.7973    0.0000 C   0  0  0  0  0  0  0  0  0  0  0  0
   -6.9983   -0.8826    0.0000 O   0  0  0  0  0  0  0  0  0  0  0  0
   -4.6894    0.4643    0.0000 O   0  0  0  0  0  0  0  0  0  0  0  0
  2  1  1  1
  2  3  1  0
  3  4  1  0
  5  4  1  1
  5  6  1  0
  6  7  1  6
  7  8  1  1
  9  8  1  1
  9 10  1  0
 10 11  2  0
 11 12  1  0
 12 13  2  0
 12 14  1  0
 14 15  1  0
 15 16  1  0
 16 17  1  1
  6 18  1  0
 18 19  1  1
 19 20  1  1
 21 20  1  1
 21 22  1  0
 22 23  1  6
 23 24  1  0
 24 25  1  0
 25 26  2  0
 25 27  1  0
 18  2  1  0
 21 19  1  0
 27 22  1  0
 22  2  1  0
 16  5  1  0
  9  7  1  0
 16 10  1  0
M  END
>  <zinc_id>  (73) 
ZINC000003927200

>  <smiles>  (73) 
C[C@]12CC[C@H]3[C@H]([C@@H]1[C@@H]1C[C@@H]1[C@@]21CCC(=O)O1)[C@H]1C[C@H]1C1=CC(=O)CC[C@@]13C

$$$$

     RDKit          3D

 35 35  0  0  0  0  0  0  0  0999 V2000
   10.0003   -1.3110   -0.0647 C   0  0  0  0  0  0  0  0  0  0  0  0
    9.1759   -0.6307   -1.1559 C   0  0  0  0  0  0  0  0  0  0  0  0
    8.2052   -1.6216   -1.7767 C   0  0  0  0  0  0  0  0  0  0  0  0
    7.3077   -2.1038   -0.6651 C   0  0  0  0  0  0  0  0  0  0  0  0
    6.3120   -3.1003   -1.2827 C   0  0  0  0  0  0  0  0  0  0  0  0
    5.3831   -3.6138   -0.1795 C   0  0  0  0  0  0  0  0  0  0  0  0
    4.6680   -2.4206    0.3871 C   0  0  0  0  0  0  0  0  0  0  0  0
    3.7516   -2.8902    1.4957 C   0  0  0  0  0  0  0  0  0  0  0  0
    3.0518   -1.6573    2.0602 C   0  0  0  0  0  0  0  0  0  0  0  0
    2.2493   -1.0183    0.9556 C   0  0  0  0  0  0  0  0  0  0  0  0
    1.5945    0.2339    1.4880 C   0  0  0  0  0  0  0  0  0  0  0  0
    0.7390    0.7697    0.0541 C   0  0  1  0  0  0  0  0  0  0  0  0
   -0.0816   -0.5897    0.1007 C   0  0  0  0  0  0  0  0  0  0  0  0
   -1.0980   -0.7713   -1.0507 C   0  0  2  0  0  0  0  0  0  0  0  0
   -2.0586    0.3242   -0.8392 O   0  0  0  0  0  0  0  0  0  0  0  0
   -3.1973   -0.5375   -0.6774 C   0  0  0  0  0  0  0  0  0  0  0  0
   -4.3087   -0.1840   -0.9944 O   0  0  0  0  0  0  0  0  0  0  0  0
   -2.2746   -1.6495   -0.0895 C   0  0  1  0  0  0  0  0  0  0  0  0
   -2.4437   -2.8289   -1.1563 C   0  0  0  0  0  0  0  0  0  0  0  0
   -3.3283   -3.8192   -0.5704 C   0  0  0  0  0  0  0  0  0  0  0  0
   -4.7095   -3.6198   -0.2127 C   0  0  0  0  0  0  0  0  0  0  0  0
   -5.6246   -3.3398   -1.3332 C   0  0  0  0  0  0  0  0  0  0  0  0
   -7.0559   -3.1573   -1.0092 C   0  0  0  0  0  0  0  0  0  0  0  0
   -7.2579   -2.0274   -0.0689 C   0  0  0  0  0  0  0  0  0  0  0  0
   -0.0910    1.6651    0.9128 O   0  0  0  0  0  0  0  0  0  0  0  0
   -0.7996    2.7284    0.4322 C   0  0  0  0  0  0  0  0  0  0  0  0
   -0.7903    3.0538   -0.7075 O   0  0  0  0  0  0  0  0  0  0  0  0
   -1.6147    3.4546    1.5979 C   0  0  2  0  0  0  0  0  0  0  0  0
   -3.1088    3.2075    1.0299 C   0  0  0  0  0  0  0  0  0  0  0  0
   -3.3871    3.7400   -0.2457 C   0  0  0  0  0  0  0  0  0  0  0  0
   -3.3126    5.1937   -0.5824 C   0  0  0  0  0  0  0  0  0  0  0  0
   -4.8351    3.3803   -0.5703 C   0  0  0  0  0  0  0  0  0  0  0  0
   -1.4812    4.9263    1.0804 N   0  0  0  0  0  0  0  0  0  0  0  0
   -0.2151    5.4197    1.4920 C   0  0  0  0  0  0  0  0  0  0  0  0
    0.6360    4.7947    2.1457 O   0  0  0  0  0  0  0  0  0  0  0  0
  1  2  1  0
  2  3  1  0
  3  4  1  0
  4  5  1  0
  5  6  1  0
  6  7  1  0
  7  8  1  0
  8  9  1  0
  9 10  1  0
 10 11  1  0
 12 11  1  1
 12 13  1  0
 14 13  1  1
 14 15  1  0
 15 16  1  0
 16 17  2  0
 16 18  1  0
 18 19  1  6
 19 20  1  0
 20 21  1  0
 21 22  1  0
 22 23  1  0
 23 24  1  0
 12 25  1  0
 25 26  1  0
 26 27  2  0
 26 28  1  0
 28 29  1  6
 29 30  1  0
 30 31  1  0
 30 32  1  0
 28 33  1  0
 33 34  1  0
 34 35  2  0
 18 14  1  0
M  END
>  <zinc_id>  (74) 
ZINC000008214635

>  <smiles>  (74) 
CCCCCCCCCCC[C@@H](C[C@@H]1OC(=O)[C@H]1CCCCCC)OC(=O)[C@H](CC(C)C)NC=O

$$$$

     RDKit          3D

 12 13  0  0  0  0  0  0  0  0999 V2000
   -1.0282    3.0734    0.6602 N   0  0  0  0  0  0  0  0  0  0  0  0
   -1.1919    2.1759   -0.4336 N   0  0  0  0  0  0  0  0  0  0  0  0
   -1.0968    0.7642   -0.1899 C   0  0  0  0  0  0  0  0  0  0  0  0
   -2.1616   -0.0148    0.0308 N   0  0  0  0  0  0  0  0  0  0  0  0
   -2.0618   -1.3179    0.2752 N   0  0  0  0  0  0  0  0  0  0  0  0
   -0.8676   -1.9134    0.3125 C   0  0  0  0  0  0  0  0  0  0  0  0
    0.2921   -1.2147    0.1016 C   0  0  0  0  0  0  0  0  0  0  0  0
    1.5391   -1.8106    0.1436 C   0  0  0  0  0  0  0  0  0  0  0  0
    2.6769   -1.0742   -0.0657 C   0  0  0  0  0  0  0  0  0  0  0  0
    2.4949    0.2801   -0.3164 C   0  0  0  0  0  0  0  0  0  0  0  0
    1.2616    0.8970   -0.3636 C   0  0  0  0  0  0  0  0  0  0  0  0
    0.1433    0.1549   -0.1547 C   0  0  0  0  0  0  0  0  0  0  0  0
  1  2  1  0
  2  3  1  0
  3  4  2  0
  4  5  1  0
  5  6  2  0
  6  7  1  0
  7  8  2  0
  8  9  1  0
  9 10  2  0
 10 11  1  0
 11 12  2  0
 12  3  1  0
 12  7  1  0
M  END
>  <zinc_id>  (75) 
ZINC000012360535

>  <smiles>  (75) 
NNc1nncc2ccccc12

$$$$

     RDKit          3D

 14 13  0  0  0  0  0  0  0  0999 V2000
    3.1346    1.8734   -0.5874 C   0  0  0  0  0  0  0  0  0  0  0  0
    3.0908    1.5639   -0.5672 C   0  0  0  0  0  0  0  0  0  0  0  0
    2.4671    0.0283   -0.8621 C   0  0  1  0  0  0  0  0  0  0  0  0
    3.4800   -0.6590    0.2592 C   0  0  0  0  0  0  0  0  0  0  0  0
    2.7712   -1.7785    0.6860 O   0  0  0  0  0  0  0  0  0  0  0  0
    1.2991    0.2410    0.1940 N   0  0  0  0  0  0  0  0  0  0  0  0
    0.5026   -0.9521   -0.0782 C   0  0  0  0  0  0  0  0  0  0  0  0
   -0.6946   -0.9047    0.8607 C   0  0  0  0  0  0  0  0  0  0  0  0
   -1.4641    0.3151    0.5879 N   0  0  0  0  0  0  0  0  0  0  0  0
   -2.0550    0.0111   -0.8811 C   0  0  1  0  0  0  0  0  0  0  0  0
   -2.9195   -1.2988   -0.3239 C   0  0  0  0  0  0  0  0  0  0  0  0
   -3.5919   -1.7772   -1.5798 C   0  0  0  0  0  0  0  0  0  0  0  0
   -3.3299    1.0511   -0.6490 C   0  0  0  0  0  0  0  0  0  0  0  0
   -2.6905    2.2865   -0.4211 O   0  0  0  0  0  0  0  0  0  0  0  0
  1  2  1  0
  3  2  1  1
  3  4  1  0
  4  5  1  0
  3  6  1  0
  6  7  1  0
  7  8  1  0
  8  9  1  0
  9 10  1  0
 10 11  1  1
 11 12  1  0
 10 13  1  0
 13 14  1  0
M  END
>  <zinc_id>  (76) 
ZINC000019364219

>  <smiles>  (76) 
CC[C@@H](CO)NCCN[C@@H](CC)CO

$$$$

     RDKit          2D

 17 18  0  0  0  0  0  0  0  0999 V2000
   -5.2259   -0.0425    0.0000 O   0  0  0  0  0  0  0  0  0  0  0  0
   -3.7273    0.0224    0.0000 C   0  0  0  0  0  0  0  0  0  0  0  0
   -3.0342    1.3527    0.0000 N   0  0  0  0  0  0  0  0  0  0  0  0
   -1.5357    1.4176    0.0000 C   0  0  0  0  0  0  0  0  0  0  0  0
   -0.8426    2.7479    0.0000 O   0  0  0  0  0  0  0  0  0  0  0  0
   -0.7301    0.1523    0.0000 N   0  0  0  0  0  0  0  0  0  0  0  0
    0.7685    0.2172    0.0000 C   0  0  0  0  0  0  0  0  0  0  0  0
    1.5968    1.4678    0.0000 C   0  0  0  0  0  0  0  0  0  0  0  0
    3.0421    1.0664    0.0000 C   0  0  0  0  0  0  0  0  0  0  0  0
    4.2163    1.9998    0.0000 O   0  0  0  0  0  0  0  0  0  0  0  0
    3.1070   -0.4322    0.0000 C   0  0  0  0  0  0  0  0  0  0  0  0
    4.3576   -1.2605    0.0000 C   0  0  0  0  0  0  0  0  0  0  0  0
    4.2655   -2.7577    0.0000 O   0  0  0  0  0  0  0  0  0  0  0  0
    1.7018   -0.9570    0.0000 O   0  0  0  0  0  0  0  0  0  0  0  0
   -1.4232   -1.1780    0.0000 C   0  0  0  0  0  0  0  0  0  0  0  0
   -2.9218   -1.2429    0.0000 C   0  0  0  0  0  0  0  0  0  0  0  0
   -3.6149   -2.5732    0.0000 F   0  0  0  0  0  0  0  0  0  0  0  0
  1  2  2  0
  2  3  1  0
  3  4  1  0
  4  5  2  0
  4  6  1  0
  7  6  1  1
  7  8  1  0
  8  9  1  0
  9 10  1  6
  9 11  1  0
 11 12  1  1
 12 13  1  0
 11 14  1  0
  6 15  1  0
 15 16  2  0
 16 17  1  0
 16  2  1  0
 14  7  1  0
M  END
>  <zinc_id>  (77) 
ZINC000003813010

>  <smiles>  (77) 
O=c1[nH]c(=O)n([C@H]2C[C@H](O)[C@@H](CO)O2)cc1F

$$$$

     RDKit          3D

 35 37  0  0  0  0  0  0  0  0999 V2000
    0.5029    2.0924   -0.1552 C   0  0  0  0  0  0  0  0  0  0  0  0
   -0.2686    0.6423   -0.0142 C   0  0  1  0  0  0  0  0  0  0  0  0
    0.5158    0.1970    1.3855 C   0  0  0  0  0  0  0  0  0  0  0  0
    1.9505    0.1482    1.0890 C   0  0  0  0  0  0  0  0  0  0  0  0
    2.6626    1.3098    1.2748 C   0  0  0  0  0  0  0  0  0  0  0  0
    4.0045    1.4082    1.0397 C   0  0  0  0  0  0  0  0  0  0  0  0
    4.7066    0.2781    0.5870 C   0  0  0  0  0  0  0  0  0  0  0  0
    4.0159   -0.8910    0.3929 C   0  0  0  0  0  0  0  0  0  0  0  0
    4.6862   -2.0715   -0.1312 C   0  0  0  0  0  0  0  0  0  0  0  0
    3.9204   -3.3189   -0.0239 N   0  0  0  0  0  0  0  0  0  0  0  0
    5.7936   -2.1788   -0.6473 O   0  0  0  0  0  0  0  0  0  0  0  0
    2.6357   -0.9404    0.6495 C   0  0  0  0  0  0  0  0  0  0  0  0
    6.0804    0.6463    0.4696 N   0  0  0  0  0  0  0  0  0  0  0  0
    7.2097   -0.1833    0.6512 C   0  0  0  0  0  0  0  0  0  0  0  0
    8.0039    0.1324    1.8973 C   0  0  0  0  0  0  0  0  0  0  0  0
    8.5245    1.5474    1.8947 C   0  0  0  0  0  0  0  0  0  0  0  0
    9.3666    1.8148    0.8156 O   0  0  0  0  0  0  0  0  0  0  0  0
    6.0493    2.0762    0.1567 C   0  0  0  0  0  0  0  0  0  0  0  0
    4.9725    2.5368    1.1469 C   0  0  0  0  0  0  0  0  0  0  0  0
   -1.4915    1.2520    0.7773 N   0  0  0  0  0  0  0  0  0  0  0  0
   -2.0956    2.1997   -0.1371 C   0  0  0  0  0  0  0  0  0  0  0  0
   -2.7480    1.5751   -1.3307 C   0  0  0  0  0  0  0  0  0  0  0  0
   -3.7930    0.6835   -0.9051 O   0  0  0  0  0  0  0  0  0  0  0  0
   -4.5095    0.0166   -1.9220 C   0  0  0  0  0  0  0  0  0  0  0  0
   -4.2419    0.1999   -3.2380 C   0  0  0  0  0  0  0  0  0  0  0  0
   -4.9394   -0.4491   -4.2029 C   0  0  0  0  0  0  0  0  0  0  0  0
   -5.9374   -1.3100   -3.8564 C   0  0  0  0  0  0  0  0  0  0  0  0
   -6.2348   -1.5202   -2.5521 C   0  0  0  0  0  0  0  0  0  0  0  0
   -5.5256   -0.8586   -1.5266 C   0  0  0  0  0  0  0  0  0  0  0  0
   -5.8701   -1.1137   -0.3004 O   0  0  0  0  0  0  0  0  0  0  0  0
   -6.2096   -1.3653    0.9016 C   0  0  0  0  0  0  0  0  0  0  0  0
   -7.6275   -1.0794    1.3603 C   0  0  0  0  0  0  0  0  0  0  0  0
   -8.5189   -1.8194    0.5973 F   0  0  0  0  0  0  0  0  0  0  0  0
   -7.8295    0.2714    1.1706 F   0  0  0  0  0  0  0  0  0  0  0  0
   -7.7604   -1.4450    2.6856 F   0  0  0  0  0  0  0  0  0  0  0  0
  2  1  1  6
  2  3  1  0
  3  4  1  0
  4  5  2  0
  5  6  1  0
  6  7  2  0
  7  8  1  0
  8  9  1  0
  9 10  1  0
  9 11  2  0
  8 12  2  0
  7 13  1  0
 13 14  1  0
 14 15  1  0
 15 16  1  0
 16 17  1  0
 13 18  1  0
 18 19  1  0
  2 20  1  0
 20 21  1  0
 21 22  1  0
 22 23  1  0
 23 24  1  0
 24 25  2  0
 25 26  1  0
 26 27  2  0
 27 28  1  0
 28 29  2  0
 29 30  1  0
 30 31  1  0
 31 32  1  0
 32 33  1  0
 32 34  1  0
 32 35  1  0
 12  4  1  0
 29 24  1  0
 19  6  1  0
M  END
>  <zinc_id>  (78) 
ZINC000003806063

>  <smiles>  (78) 
C[C@H](Cc1cc2c(c(C(N)=O)c1)N(CCCO)CC2)NCCOc1ccccc1OCC(F)(F)F

$$$$

     RDKit          3D

 22 25  0  0  0  0  0  0  0  0999 V2000
    3.4828    2.0258   -1.1508 C   0  0  0  0  0  0  0  0  0  0  0  0
    4.0119    1.0834   -0.6412 C   0  0  0  0  0  0  0  0  0  0  0  0
    5.2378    1.0751   -0.0151 N   0  0  0  0  0  0  0  0  0  0  0  0
    5.5462   -0.1593    0.4253 C   0  0  0  0  0  0  0  0  0  0  0  0
    4.4920   -0.9720    0.0757 C   0  0  0  0  0  0  0  0  0  0  0  0
    3.5632   -0.1740   -0.5796 N   0  0  0  0  0  0  0  0  0  0  0  0
    2.3537   -0.7988   -1.0190 C   0  0  0  0  0  0  0  0  0  0  0  0
    1.2661   -0.9128    0.1355 C   0  0  1  0  0  0  0  0  0  0  0  0
    1.1187    0.6599    0.4198 C   0  0  0  0  0  0  0  0  0  0  0  0
    0.0841    0.6639    1.5506 C   0  0  0  0  0  0  0  0  0  0  0  0
   -1.2104    0.3651    0.8483 C   0  0  0  0  0  0  0  0  0  0  0  0
   -1.2085   -0.4541   -0.2771 C   0  0  0  0  0  0  0  0  0  0  0  0
   -2.5444   -0.5034   -0.6513 C   0  0  0  0  0  0  0  0  0  0  0  0
   -3.1776   -1.1345   -1.6649 C   0  0  0  0  0  0  0  0  0  0  0  0
   -4.5679   -1.0074   -1.8098 C   0  0  0  0  0  0  0  0  0  0  0  0
   -5.3020   -0.2366   -0.9186 C   0  0  0  0  0  0  0  0  0  0  0  0
   -4.6477    0.4032    0.1119 C   0  0  0  0  0  0  0  0  0  0  0  0
   -3.2907    0.2561    0.2216 C   0  0  0  0  0  0  0  0  0  0  0  0
   -2.4480    0.7875    1.1453 N   0  0  0  0  0  0  0  0  0  0  0  0
   -2.8099    1.6449    2.2408 C   0  0  0  0  0  0  0  0  0  0  0  0
    0.0084   -1.0322   -0.7912 C   0  0  0  0  0  0  0  0  0  0  0  0
    0.0423   -1.5799   -1.8850 O   0  0  0  0  0  0  0  0  0  0  0  0
  1  2  1  0
  2  3  2  0
  3  4  1  0
  4  5  2  0
  5  6  1  0
  6  7  1  0
  8  7  1  6
  8  9  1  0
  9 10  1  0
 10 11  1  0
 11 12  2  0
 12 13  1  0
 13 14  2  0
 14 15  1  0
 15 16  2  0
 16 17  1  0
 17 18  2  0
 18 19  1  0
 19 20  1  0
 12 21  1  0
 21 22  2  0
  6  2  1  0
 21  8  1  0
 19 11  1  0
 18 13  1  0
M  END
>  <zinc_id>  (79) 
ZINC000000004448

>  <smiles>  (79) 
Cc1nccn1C[C@H]1CCc2c(c3ccccc3n2C)C1=O

$$$$

     RDKit          3D

 22 22  0  0  0  0  0  0  0  0999 V2000
    0.5903    0.6221    3.0790 C   0  0  0  0  0  0  0  0  0  0  0  0
    0.6576    0.3091    1.6059 C   0  0  0  0  0  0  0  0  0  0  0  0
   -0.6086    0.1298    0.9039 C   0  0  0  0  0  0  0  0  0  0  0  0
   -1.7794    0.2140    1.4252 C   0  0  0  0  0  0  0  0  0  0  0  0
   -3.0789    0.0572    0.8321 C   0  0  0  0  0  0  0  0  0  0  0  0
   -4.2138    0.1762    1.5123 C   0  0  0  0  0  0  0  0  0  0  0  0
   -4.1707    0.4872    2.9639 C   0  0  0  0  0  0  0  0  0  0  0  0
   -5.4770   -0.0153    0.7538 C   0  0  0  0  0  0  0  0  0  0  0  0
   -5.4656    0.7624   -0.5324 C   0  0  0  0  0  0  0  0  0  0  0  0
   -4.1207    0.8430   -1.1840 C   0  0  0  0  0  0  0  0  0  0  0  0
   -3.2162   -0.2527   -0.6048 C   0  0  0  0  0  0  0  0  0  0  0  0
   -4.0382   -1.5411   -0.7213 C   0  0  0  0  0  0  0  0  0  0  0  0
   -1.9483   -0.3793   -1.3628 C   0  0  0  0  0  0  0  0  0  0  0  0
    1.7965    0.2002    0.9727 C   0  0  0  0  0  0  0  0  0  0  0  0
    1.8309   -0.1009   -0.4409 C   0  0  0  0  0  0  0  0  0  0  0  0
    3.0043   -0.2007   -1.0356 C   0  0  0  0  0  0  0  0  0  0  0  0
    4.2069   -0.0078   -0.2627 C   0  0  0  0  0  0  0  0  0  0  0  0
    4.1415    0.2983    1.1777 C   0  0  0  0  0  0  0  0  0  0  0  0
    5.3758   -0.1061   -0.8500 C   0  0  0  0  0  0  0  0  0  0  0  0
    5.4716   -0.4042   -2.2558 C   0  0  0  0  0  0  0  0  0  0  0  0
    6.6452   -0.4823   -2.7488 O   0  0  0  0  0  0  0  0  0  0  0  0
    4.3965   -0.6090   -3.0985 O   0  0  0  0  0  0  0  0  0  0  0  0
  1  2  1  0
  2  3  1  0
  3  4  2  0
  4  5  1  0
  5  6  2  0
  6  7  1  0
  6  8  1  0
  8  9  1  0
  9 10  1  0
 10 11  1  0
 11 12  1  0
 11 13  1  0
  2 14  2  0
 14 15  1  0
 15 16  2  0
 16 17  1  0
 17 18  1  0
 17 19  2  0
 19 20  1  0
 20 21  2  0
 20 22  1  0
 11  5  1  0
M  END
>  <zinc_id>  (80) 
ZINC000009212654

>  <smiles>  (80) 
CC1=C(/C=C/C(C)=C\C=C/C(C)=C\C(=O)O)C(C)(C)CCC1

$$$$

     RDKit          3D

 29 30  0  0  0  0  0  0  0  0999 V2000
   -1.8935   -0.0721   -1.4080 C   0  0  0  0  0  0  0  0  0  0  0  0
   -1.2709   -1.1135   -0.5861 C   0  0  2  0  0  0  0  0  0  0  0  0
   -1.3483   -2.3659   -1.1966 O   0  0  0  0  0  0  0  0  0  0  0  0
   -1.8546   -1.0853    0.7736 C   0  0  0  0  0  0  0  0  0  0  0  0
   -3.5589   -1.3625    0.9332 S   0  0  0  0  0  0  0  0  0  0  0  0
   -3.9528   -2.7781    0.5607 O   0  0  0  0  0  0  0  0  0  0  0  0
   -3.9040   -1.2365    2.4118 O   0  0  0  0  0  0  0  0  0  0  0  0
   -4.5887   -0.2298    0.0980 C   0  0  0  0  0  0  0  0  0  0  0  0
   -4.9393    0.9842    0.6725 C   0  0  0  0  0  0  0  0  0  0  0  0
   -5.7633    1.8726    0.0242 C   0  0  0  0  0  0  0  0  0  0  0  0
   -6.2866    1.6137   -1.2248 C   0  0  0  0  0  0  0  0  0  0  0  0
   -7.1009    2.5017   -1.8553 F   0  0  0  0  0  0  0  0  0  0  0  0
   -5.9361    0.4071   -1.7920 C   0  0  0  0  0  0  0  0  0  0  0  0
   -5.1128   -0.4877   -1.1513 C   0  0  0  0  0  0  0  0  0  0  0  0
    0.1777   -0.7801   -0.4580 C   0  0  0  0  0  0  0  0  0  0  0  0
    1.0427   -1.5656   -0.8629 O   0  0  0  0  0  0  0  0  0  0  0  0
    0.6173    0.4390    0.1275 N   0  0  0  0  0  0  0  0  0  0  0  0
    1.9946    0.7158    0.2297 C   0  0  0  0  0  0  0  0  0  0  0  0
    2.4072    1.8920    0.7949 C   0  0  0  0  0  0  0  0  0  0  0  0
    3.7578    2.1704    0.8985 C   0  0  0  0  0  0  0  0  0  0  0  0
    4.7117    1.2905    0.4453 C   0  0  0  0  0  0  0  0  0  0  0  0
    6.1266    1.5960    0.5606 C   0  0  0  0  0  0  0  0  0  0  0  0
    7.2512    1.8448    0.6603 N   0  0  0  0  0  0  0  0  0  0  0  0
    4.2668    0.1114   -0.1206 C   0  0  0  0  0  0  0  0  0  0  0  0
    5.3137   -0.8325   -0.6073 C   0  0  0  0  0  0  0  0  0  0  0  0
    6.1295   -1.2068    0.4507 F   0  0  0  0  0  0  0  0  0  0  0  0
    4.7202   -1.9597   -1.1703 F   0  0  0  0  0  0  0  0  0  0  0  0
    6.0806   -0.1793   -1.5444 F   0  0  0  0  0  0  0  0  0  0  0  0
    2.9131   -0.1839   -0.2324 C   0  0  0  0  0  0  0  0  0  0  0  0
  2  1  1  6
  2  3  1  0
  2  4  1  0
  4  5  1  0
  5  6  2  0
  5  7  2  0
  5  8  1  0
  8  9  2  0
  9 10  1  0
 10 11  2  0
 11 12  1  0
 11 13  1  0
 13 14  2  0
  2 15  1  0
 15 16  2  0
 15 17  1  0
 17 18  1  0
 18 19  2  0
 19 20  1  0
 20 21  2  0
 21 22  1  0
 22 23  3  0
 21 24  1  0
 24 25  1  0
 25 26  1  0
 25 27  1  0
 25 28  1  0
 24 29  2  0
 14  8  1  0
 29 18  1  0
M  END
>  <zinc_id>  (81) 
ZINC000000538564

>  <smiles>  (81) 
C[C@](O)(CS(=O)(=O)c1ccc(F)cc1)C(=O)Nc1ccc(C#N)c(C(F)(F)F)c1

$$$$

     RDKit          3D

 35 38  0  0  0  0  0  0  0  0999 V2000
    2.4848    5.1327    0.9364 C   0  0  0  0  0  0  0  0  0  0  0  0
    1.9061    4.9216    0.2836 C   0  0  0  0  0  0  0  0  0  0  0  0
    2.0275    3.7506   -0.5288 O   0  0  0  0  0  0  0  0  0  0  0  0
    2.0027    2.4887    0.1148 C   0  0  0  0  0  0  0  0  0  0  0  0
    1.8801    2.4014    1.3397 O   0  0  0  0  0  0  0  0  0  0  0  0
    2.1189    1.4199   -0.6799 O   0  0  0  0  0  0  0  0  0  0  0  0
    2.1362    0.0333   -0.3637 C   0  0  2  0  0  0  0  0  0  0  0  0
    3.2325   -0.3486    0.5025 C   0  0  0  0  0  0  0  0  0  0  0  0
    3.9713    0.6367    0.9054 O   0  0  0  0  0  0  0  0  0  0  0  0
    3.6836   -1.5967    1.0257 C   0  0  0  0  0  0  0  0  0  0  0  0
    3.4621   -2.8331    0.6517 O   0  0  0  0  0  0  0  0  0  0  0  0
    3.8573   -3.5763   -0.4418 C   0  0  0  0  0  0  0  0  0  0  0  0
    4.5834   -3.0399   -1.2887 O   0  0  0  0  0  0  0  0  0  0  0  0
    3.4439   -4.9786   -0.6302 C   0  0  0  0  0  0  0  0  0  0  0  0
    3.9791   -5.5980   -1.8746 C   0  0  0  0  0  0  0  0  0  0  0  0
    2.1067   -0.5867   -1.7470 C   0  0  0  0  0  0  0  0  0  0  0  0
    0.7011   -0.2928   -2.2779 C   0  0  0  0  0  0  0  0  0  0  0  0
    0.0430    0.5632   -1.0619 C   0  0  1  0  0  0  0  0  0  0  0  0
   -1.4083   -0.3139   -1.0632 C   0  0  2  0  0  0  0  0  0  0  0  0
   -2.1271    0.7504   -2.0251 C   0  0  0  0  0  0  0  0  0  0  0  0
   -3.5942    0.6020   -1.9612 C   0  0  0  0  0  0  0  0  0  0  0  0
   -4.1326    0.6059   -0.5640 C   0  0  0  0  0  0  0  0  0  0  0  0
   -5.1716    1.3158   -0.2219 C   0  0  0  0  0  0  0  0  0  0  0  0
   -5.6955    1.3209    1.1352 C   0  0  0  0  0  0  0  0  0  0  0  0
   -6.6899    1.9877    1.5045 O   0  0  0  0  0  0  0  0  0  0  0  0
   -4.9558    0.4669    2.0625 C   0  0  0  0  0  0  0  0  0  0  0  0
   -3.9312   -0.2238    1.6925 C   0  0  0  0  0  0  0  0  0  0  0  0
   -3.3874   -0.2513    0.3554 C   0  0  1  0  0  0  0  0  0  0  0  0
   -3.3065   -1.6273   -0.2394 C   0  0  0  0  0  0  0  0  0  0  0  0
   -1.9075    0.3984    0.3847 C   0  0  1  0  0  0  0  0  0  0  0  0
   -1.2368   -0.8918    1.2774 C   0  0  2  0  0  0  0  0  0  0  0  0
   -1.6320   -0.2596    2.6329 O   0  0  0  0  0  0  0  0  0  0  0  0
    0.2601   -0.1300    1.3637 C   0  0  0  0  0  0  0  0  0  0  0  0
    0.7561   -0.4353    0.0441 C   0  0  2  0  0  0  0  0  0  0  0  0
    0.5399   -1.8124   -0.4735 C   0  0  0  0  0  0  0  0  0  0  0  0
  1  2  1  0
  2  3  1  0
  3  4  1  0
  4  5  2  0
  4  6  1  0
  7  6  1  6
  7  8  1  0
  8  9  2  0
  8 10  1  0
 10 11  1  0
 11 12  1  0
 12 13  2  0
 12 14  1  0
 14 15  1  0
  7 16  1  0
 16 17  1  0
 18 17  1  6
 18 19  1  0
 19 20  1  6
 20 21  1  0
 21 22  1  0
 22 23  2  0
 23 24  1  0
 24 25  2  0
 24 26  1  0
 26 27  2  0
 27 28  1  0
 28 29  1  6
 28 30  1  0
 30 31  1  1
 31 32  1  1
 31 33  1  0
 33 34  1  0
 34 35  1  6
 34  7  1  0
 34 18  1  0
 30 19  1  0
 28 22  1  0
M  END
>  <zinc_id>  (82) 
ZINC000118913562

>  <smiles>  (82) 
CCOC(=O)O[C@]1(C(=O)COC(=O)CC)CC[C@H]2[C@@H]3CCC4=CC(=O)C=C[C@]4(C)[C@H]3[C@H](O)C[C@@]21C

$$$$

     RDKit          3D

 30 31  0  0  0  0  0  0  0  0999 V2000
   -6.5046   -1.8114   -0.1440 C   0  0  0  0  0  0  0  0  0  0  0  0
   -5.6793   -2.8507   -0.5542 O   0  0  0  0  0  0  0  0  0  0  0  0
   -4.3937   -2.5408   -0.2348 C   0  0  0  0  0  0  0  0  0  0  0  0
   -3.3859   -3.5941   -0.6285 C   0  0  0  0  0  0  0  0  0  0  0  0
   -2.0694   -3.2213   -0.2739 O   0  0  0  0  0  0  0  0  0  0  0  0
   -1.4245   -2.1085   -0.7259 C   0  0  0  0  0  0  0  0  0  0  0  0
   -2.0689   -1.3668   -1.5213 O   0  0  0  0  0  0  0  0  0  0  0  0
   -0.0628   -1.7834   -0.3183 C   0  0  0  0  0  0  0  0  0  0  0  0
    0.5011   -2.6133    0.4994 C   0  0  0  0  0  0  0  0  0  0  0  0
   -0.2052   -3.8258    0.9903 C   0  0  0  0  0  0  0  0  0  0  0  0
    1.8379   -2.4007    0.9713 N   0  0  0  0  0  0  0  0  0  0  0  0
    2.4994   -1.2575    0.5065 C   0  0  0  0  0  0  0  0  0  0  0  0
    3.9450   -1.0290    1.0178 C   0  0  0  0  0  0  0  0  0  0  0  0
    1.9857   -0.4081   -0.3012 C   0  0  0  0  0  0  0  0  0  0  0  0
    2.8193    0.7490   -0.6961 C   0  0  0  0  0  0  0  0  0  0  0  0
    2.3254    1.5739   -1.4783 O   0  0  0  0  0  0  0  0  0  0  0  0
    4.0951    0.9557   -0.2482 O   0  0  0  0  0  0  0  0  0  0  0  0
    4.8763    2.0885   -0.6509 C   0  0  0  0  0  0  0  0  0  0  0  0
    6.2267    2.0842   -0.0269 C   0  0  0  0  0  0  0  0  0  0  0  0
    4.9294    2.0188   -2.1745 C   0  0  0  0  0  0  0  0  0  0  0  0
    0.5798   -0.5141   -0.8769 C   0  0  2  0  0  0  0  0  0  0  0  0
   -0.1679    0.5923   -0.0576 C   0  0  0  0  0  0  0  0  0  0  0  0
   -0.2997    0.3758    1.2546 C   0  0  0  0  0  0  0  0  0  0  0  0
   -0.9496    1.3118    2.0394 C   0  0  0  0  0  0  0  0  0  0  0  0
   -1.4517    2.4578    1.4460 C   0  0  0  0  0  0  0  0  0  0  0  0
   -1.3257    2.6978    0.0982 C   0  0  0  0  0  0  0  0  0  0  0  0
   -1.8366    3.8675   -0.5157 N   0  0  0  0  0  0  0  0  0  0  0  0
   -2.4299    4.7479    0.1280 O   0  0  0  0  0  0  0  0  0  0  0  0
   -1.7037    4.0950   -1.8649 O   0  0  0  0  0  0  0  0  0  0  0  0
   -0.6621    1.7096   -0.6113 C   0  0  0  0  0  0  0  0  0  0  0  0
  1  2  1  0
  2  3  1  0
  3  4  1  0
  4  5  1  0
  5  6  1  0
  6  7  2  0
  6  8  1  0
  8  9  2  0
  9 10  1  0
  9 11  1  0
 11 12  1  0
 12 13  1  0
 12 14  2  0
 14 15  1  0
 15 16  2  0
 15 17  1  0
 17 18  1  0
 18 19  1  0
 18 20  1  0
 14 21  1  0
 21 22  1  6
 22 23  2  0
 23 24  1  0
 24 25  2  0
 25 26  1  0
 26 27  1  0
 27 28  2  0
 27 29  1  0
 26 30  2  0
 21  8  1  0
 30 22  1  0
M  CHG  2  27   1  29  -1
M  END
>  <zinc_id>  (83) 
ZINC000019632718

>  <smiles>  (83) 
COCCOC(=O)C1=C(C)NC(C)=C(C(=O)OC(C)C)[C@H]1c1cccc([N+](=O)[O-])c1

$$$$

     RDKit          3D

 28 31  0  0  0  0  0  0  0  0999 V2000
   -3.8248   -1.8459   -2.8019 C   0  0  0  0  0  0  0  0  0  0  0  0
   -4.4687   -1.3541   -1.6407 O   0  0  0  0  0  0  0  0  0  0  0  0
   -3.6777   -0.9146   -0.5660 C   0  0  0  0  0  0  0  0  0  0  0  0
   -2.3069   -0.9502   -0.6141 C   0  0  0  0  0  0  0  0  0  0  0  0
   -1.5175   -0.5140    0.4527 C   0  0  0  0  0  0  0  0  0  0  0  0
   -2.1631   -0.0459    1.5550 C   0  0  0  0  0  0  0  0  0  0  0  0
   -3.5538   -0.0183    1.5845 C   0  0  0  0  0  0  0  0  0  0  0  0
   -4.3447   -0.4435    0.5451 C   0  0  0  0  0  0  0  0  0  0  0  0
   -5.7326   -0.4136    0.5802 O   0  0  0  0  0  0  0  0  0  0  0  0
   -6.3318    0.0863    1.7620 C   0  0  0  0  0  0  0  0  0  0  0  0
   -1.2523    0.3788    2.5546 C   0  0  0  0  0  0  0  0  0  0  0  0
   -1.2914    0.5320    3.7671 O   0  0  0  0  0  0  0  0  0  0  0  0
    0.1097    0.7055    1.7914 C   0  0  2  0  0  0  0  0  0  0  0  0
   -0.5465    1.8916    0.8551 C   0  0  0  0  0  0  0  0  0  0  0  0
    0.5693    2.3480    0.0472 C   0  0  0  0  0  0  0  0  0  0  0  0
    1.7646    2.9034    0.7091 C   0  0  0  0  0  0  0  0  0  0  0  0
    2.8614    3.0285   -0.3594 C   0  0  0  0  0  0  0  0  0  0  0  0
    3.1668    1.7162   -0.8932 N   0  0  0  0  0  0  0  0  0  0  0  0
    3.6668    0.9174    0.2082 C   0  0  0  0  0  0  0  0  0  0  0  0
    4.0108   -0.4245   -0.2676 C   0  0  0  0  0  0  0  0  0  0  0  0
    4.4533   -1.3452    0.6875 C   0  0  0  0  0  0  0  0  0  0  0  0
    4.7972   -2.6265    0.3154 C   0  0  0  0  0  0  0  0  0  0  0  0
    4.7156   -3.0338   -0.9961 C   0  0  0  0  0  0  0  0  0  0  0  0
    4.2810   -2.1368   -1.9482 C   0  0  0  0  0  0  0  0  0  0  0  0
    3.9421   -0.8629   -1.5596 C   0  0  0  0  0  0  0  0  0  0  0  0
    2.0106    1.0406   -1.4345 C   0  0  0  0  0  0  0  0  0  0  0  0
    0.7334    1.8420   -1.3251 C   0  0  0  0  0  0  0  0  0  0  0  0
   -0.0708   -0.4604    0.6618 C   0  0  0  0  0  0  0  0  0  0  0  0
  1  2  1  0
  2  3  1  0
  3  4  2  0
  4  5  1  0
  5  6  2  0
  6  7  1  0
  7  8  2  0
  8  9  1  0
  9 10  1  0
  6 11  1  0
 11 12  2  0
 11 13  1  0
 13 14  1  6
 14 15  1  0
 15 16  1  0
 16 17  1  0
 17 18  1  0
 18 19  1  0
 19 20  1  0
 20 21  2  0
 21 22  1  0
 22 23  2  0
 23 24  1  0
 24 25  2  0
 18 26  1  0
 26 27  1  0
 13 28  1  0
  8  3  1  0
 27 15  1  0
 28  5  1  0
 25 20  1  0
M  END
>  <zinc_id>  (84) 
ZINC000000897251

>  <smiles>  (84) 
COc1cc2c(cc1OC)C(=O)[C@H](CC1CCN(Cc3ccccc3)CC1)C2

$$$$

     RDKit          3D

 25 27  0  0  0  0  0  0  0  0999 V2000
   -7.1036   -1.6402    1.6285 C   0  0  0  0  0  0  0  0  0  0  0  0
   -6.7043   -0.2190    1.8280 C   0  0  0  0  0  0  0  0  0  0  0  0
   -5.5830    0.1726    0.9185 C   0  0  0  0  0  0  0  0  0  0  0  0
   -4.2675    0.0262    1.3007 C   0  0  0  0  0  0  0  0  0  0  0  0
   -3.2825    0.4045    0.4200 C   0  0  0  0  0  0  0  0  0  0  0  0
   -3.5305    0.9235   -0.8276 C   0  0  0  0  0  0  0  0  0  0  0  0
   -2.4919    1.3412   -1.8015 C   0  0  0  0  0  0  0  0  0  0  0  0
   -2.1346    0.1796   -2.6756 C   0  0  0  0  0  0  0  0  0  0  0  0
   -1.6086   -0.8684   -1.9071 O   0  0  0  0  0  0  0  0  0  0  0  0
   -0.4557   -0.6824   -1.1878 C   0  0  0  0  0  0  0  0  0  0  0  0
    0.0493   -1.7114   -0.4317 C   0  0  0  0  0  0  0  0  0  0  0  0
    1.1956   -1.5608    0.2953 C   0  0  0  0  0  0  0  0  0  0  0  0
    1.8853   -0.3386    0.2825 C   0  0  0  0  0  0  0  0  0  0  0  0
    3.0913   -0.2043    1.1053 C   0  0  0  0  0  0  0  0  0  0  0  0
    4.3038   -0.7636    0.3100 C   0  0  2  0  0  0  0  0  0  0  0  0
    5.5914   -0.4905    1.7634 S   0  0  0  0  0  0  0  0  0  0  0  0
    6.8852    0.0593    0.6744 C   0  0  0  0  0  0  0  0  0  0  0  0
    8.0891    0.1017    0.9318 O   0  0  0  0  0  0  0  0  0  0  0  0
    6.2351    0.4238   -0.5152 N   0  0  0  0  0  0  0  0  0  0  0  0
    4.8145    0.4872   -0.3910 C   0  0  0  0  0  0  0  0  0  0  0  0
    4.1189    1.4195   -0.7956 O   0  0  0  0  0  0  0  0  0  0  0  0
    1.3580    0.6633   -0.4781 C   0  0  0  0  0  0  0  0  0  0  0  0
    0.1969    0.5308   -1.2225 C   0  0  0  0  0  0  0  0  0  0  0  0
   -4.8318    1.0520   -1.1667 N   0  0  0  0  0  0  0  0  0  0  0  0
   -5.8205    0.6939   -0.3342 C   0  0  0  0  0  0  0  0  0  0  0  0
  1  2  1  0
  2  3  1  0
  3  4  2  0
  4  5  1  0
  5  6  2  0
  6  7  1  0
  7  8  1  0
  8  9  1  0
  9 10  1  0
 10 11  2  0
 11 12  1  0
 12 13  2  0
 13 14  1  0
 15 14  1  1
 15 16  1  0
 16 17  1  0
 17 18  2  0
 17 19  1  0
 19 20  1  0
 20 21  2  0
 13 22  1  0
 22 23  2  0
  6 24  1  0
 24 25  2  0
 25  3  1  0
 23 10  1  0
 20 15  1  0
M  END
>  <zinc_id>  (85) 
ZINC000000968326

>  <smiles>  (85) 
CCc1ccc(CCOc2ccc(C[C@@H]3SC(=O)NC3=O)cc2)nc1

$$$$

     RDKit          3D

 15 15  0  0  0  0  0  0  0  0999 V2000
   -2.1354    2.3213    0.7957 C   0  0  0  0  0  0  0  0  0  0  0  0
   -1.5239    1.4724    0.9568 C   0  0  0  0  0  0  0  0  0  0  0  0
   -0.6127    1.0653   -0.3473 C   0  0  2  0  0  0  0  0  0  0  0  0
   -1.8769    0.8222   -1.3283 C   0  0  0  0  0  0  0  0  0  0  0  0
   -0.3877   -0.4950    0.0423 C   0  0  0  0  0  0  0  0  0  0  0  0
   -1.5449   -1.2842    0.1806 C   0  0  0  0  0  0  0  0  0  0  0  0
   -2.5466   -1.5839   -0.8157 C   0  0  0  0  0  0  0  0  0  0  0  0
    0.4869   -0.3854    1.2675 C   0  0  0  0  0  0  0  0  0  0  0  0
    0.1556   -1.0092    2.2922 O   0  0  0  0  0  0  0  0  0  0  0  0
    1.6321    0.4362    1.1378 N   0  0  0  0  0  0  0  0  0  0  0  0
    2.3192    0.5694   -0.1255 C   0  0  0  0  0  0  0  0  0  0  0  0
    3.3241    1.2851   -0.2578 O   0  0  0  0  0  0  0  0  0  0  0  0
    1.7541   -0.1800   -1.1928 N   0  0  0  0  0  0  0  0  0  0  0  0
    0.6071   -0.9846   -0.9993 C   0  0  0  0  0  0  0  0  0  0  0  0
    0.3490   -2.0495   -1.6061 O   0  0  0  0  0  0  0  0  0  0  0  0
  1  2  1  0
  2  3  1  0
  3  4  1  6
  3  5  1  0
  5  6  1  0
  6  7  1  0
  5  8  1  0
  8  9  2  0
  8 10  1  0
 10 11  1  0
 11 12  2  0
 11 13  1  0
 13 14  1  0
 14 15  2  0
 14  5  1  0
M  END
>  <zinc_id>  (86) 
ZINC000000968345

>  <smiles>  (86) 
CC[C@H](C)C1(CC)C(=O)NC(=O)NC1=O

$$$$

     RDKit          3D

 11 10  0  0  0  0  0  0  0  0999 V2000
    4.1238    0.5080    0.1030 C   0  0  0  0  0  0  0  0  0  0  0  0
    2.6516    0.3393    0.1228 C   0  0  0  0  0  0  0  0  0  0  0  0
    1.9709    1.0425   -0.6665 O   0  0  0  0  0  0  0  0  0  0  0  0
    1.9946   -0.5724    0.9864 N   0  0  0  0  0  0  0  0  0  0  0  0
    0.5561   -0.7153    0.9832 C   0  0  0  0  0  0  0  0  0  0  0  0
    0.1345   -1.1476   -0.3939 C   0  0  0  0  0  0  0  0  0  0  0  0
   -1.3472   -1.3332   -0.5327 C   0  0  0  0  0  0  0  0  0  0  0  0
   -2.2506    0.1509   -0.1974 S   0  0  0  0  0  0  0  0  0  0  0  0
   -2.0357    0.6633    1.1753 O   0  0  0  0  0  0  0  0  0  0  0  0
   -1.9072    1.2416   -1.1967 O   0  0  0  0  0  0  0  0  0  0  0  0
   -3.8908   -0.1771   -0.3834 O   0  0  0  0  0  0  0  0  0  0  0  0
  1  2  1  0
  2  3  2  0
  2  4  1  0
  4  5  1  0
  5  6  1  0
  6  7  1  0
  7  8  1  0
  8  9  2  0
  8 10  2  0
  8 11  1  0
M  END
>  <zinc_id>  (87) 
ZINC000001554588

>  <smiles>  (87) 
CC(=O)NCCCS(=O)(=O)O

$$$$

     RDKit          2D

 14 15  0  0  0  0  0  0  0  0999 V2000
   -1.2359    2.7617    0.0000 O   0  0  0  0  0  0  0  0  0  0  0  0
    0.0981    2.0757    0.0000 C   0  0  0  0  0  0  0  0  0  0  0  0
    1.3591    2.8880    0.0000 O   0  0  0  0  0  0  0  0  0  0  0  0
    0.1709    0.5775    0.0000 C   0  0  0  0  0  0  0  0  0  0  0  0
   -0.9983   -0.3621    0.0000 C   0  0  0  0  0  0  0  0  0  0  0  0
   -2.4457    0.0316    0.0000 C   0  0  0  0  0  0  0  0  0  0  0  0
   -3.5104   -1.0251    0.0000 C   0  0  0  0  0  0  0  0  0  0  0  0
   -4.9578   -0.6314    0.0000 O   0  0  0  0  0  0  0  0  0  0  0  0
   -0.4660   -1.7645    0.0000 O   0  0  0  0  0  0  0  0  0  0  0  0
    1.0322   -1.6916    0.0000 C   0  0  0  0  0  0  0  0  0  0  0  0
    2.4796   -2.0852    0.0000 C   0  0  0  0  0  0  0  0  0  0  0  0
    2.8733   -0.6378    0.0000 C   0  0  0  0  0  0  0  0  0  0  0  0
    4.1751    0.1073    0.0000 O   0  0  0  0  0  0  0  0  0  0  0  0
    1.4259   -0.2442    0.0000 N   0  0  0  0  0  0  0  0  0  0  0  0
  1  2  2  0
  2  3  1  0
  4  2  1  6
  4  5  1  0
  5  6  2  0
  6  7  1  0
  7  8  1  0
  5  9  1  0
  9 10  1  0
 10 11  1  1
 11 12  1  0
 12 13  2  0
 12 14  1  0
 14  4  1  0
 14 10  1  0
M  END
>  <zinc_id>  (88) 
ZINC000003830569

>  <smiles>  (88) 
O=C(O)[C@H]1/C(=C/CO)O[C@@H]2CC(=O)N21

$$$$

     RDKit          3D

 26 28  0  0  0  0  0  0  0  0999 V2000
   -1.8811   -2.0321    0.7212 O   0  0  0  0  0  0  0  0  0  0  0  0
   -1.2972   -0.9736    0.3822 C   0  0  0  0  0  0  0  0  0  0  0  0
   -2.1028    0.1685    0.1343 N   0  0  0  0  0  0  0  0  0  0  0  0
   -3.5185    0.1533    0.2549 C   0  0  0  0  0  0  0  0  0  0  0  0
   -4.1762    0.4506    1.4292 C   0  0  0  0  0  0  0  0  0  0  0  0
   -3.1856    0.8629    2.8208 Cl  0  0  0  0  0  0  0  0  0  0  0  0
   -5.5652    0.4237    1.5030 C   0  0  0  0  0  0  0  0  0  0  0  0
   -6.3155    0.1074    0.4343 N   0  0  0  0  0  0  0  0  0  0  0  0
   -5.6742   -0.1818   -0.7079 C   0  0  0  0  0  0  0  0  0  0  0  0
   -4.3023   -0.1689   -0.8315 C   0  0  0  0  0  0  0  0  0  0  0  0
   -3.4865   -0.5514   -2.3383 Cl  0  0  0  0  0  0  0  0  0  0  0  0
    0.1597   -0.9494    0.2558 C   0  0  0  0  0  0  0  0  0  0  0  0
    0.9201   -2.0736    0.5024 C   0  0  0  0  0  0  0  0  0  0  0  0
    2.2959   -2.0930    0.3947 C   0  0  0  0  0  0  0  0  0  0  0  0
    2.9682   -0.9351    0.0210 C   0  0  0  0  0  0  0  0  0  0  0  0
    4.3338   -0.9239   -0.0943 O   0  0  0  0  0  0  0  0  0  0  0  0
    5.1760   -2.0132    0.1361 C   0  0  0  0  0  0  0  0  0  0  0  0
    6.4966   -1.6775   -0.0647 F   0  0  0  0  0  0  0  0  0  0  0  0
    5.0640   -2.5248    1.4095 F   0  0  0  0  0  0  0  0  0  0  0  0
    2.2294    0.2017   -0.2309 C   0  0  0  0  0  0  0  0  0  0  0  0
    2.9149    1.3585   -0.6054 O   0  0  0  0  0  0  0  0  0  0  0  0
    2.2906    2.5729   -0.8880 C   0  0  0  0  0  0  0  0  0  0  0  0
    1.5324    3.0235    0.3473 C   0  0  0  0  0  0  0  0  0  0  0  0
    2.4698    3.2153    1.5537 C   0  0  0  0  0  0  0  0  0  0  0  0
    1.8080    4.3723    0.8750 C   0  0  0  0  0  0  0  0  0  0  0  0
    0.8455    0.1878   -0.1134 C   0  0  0  0  0  0  0  0  0  0  0  0
  1  2  2  0
  2  3  1  0
  3  4  1  0
  4  5  2  0
  5  6  1  0
  5  7  1  0
  7  8  2  0
  8  9  1  0
  9 10  2  0
 10 11  1  0
  2 12  1  0
 12 13  2  0
 13 14  1  0
 14 15  2  0
 15 16  1  0
 16 17  1  0
 17 18  1  0
 17 19  1  0
 15 20  1  0
 20 21  1  0
 21 22  1  0
 22 23  1  0
 23 24  1  0
 24 25  1  0
 20 26  2  0
 10  4  1  0
 26 12  1  0
 25 23  1  0
M  END
>  <zinc_id>  (89) 
ZINC000000592419

>  <smiles>  (89) 
O=C(Nc1c(Cl)cncc1Cl)c1ccc(OC(F)F)c(OCC2CC2)c1

$$$$

     RDKit          3D

 31 33  0  0  0  0  0  0  0  0999 V2000
   -1.9406    1.5778   -2.5132 C   0  0  0  0  0  0  0  0  0  0  0  0
   -2.4057    2.1579   -1.3148 O   0  0  0  0  0  0  0  0  0  0  0  0
   -3.2545    1.4275   -0.4973 C   0  0  0  0  0  0  0  0  0  0  0  0
   -4.6296    1.5327   -0.7482 C   0  0  0  0  0  0  0  0  0  0  0  0
   -5.1265    2.3998   -1.8573 C   0  0  0  0  0  0  0  0  0  0  0  0
   -5.5182    0.8344    0.0300 C   0  0  0  0  0  0  0  0  0  0  0  0
   -5.0154    0.0507    1.0364 C   0  0  0  0  0  0  0  0  0  0  0  0
   -3.6588   -0.0553    1.2878 C   0  0  0  0  0  0  0  0  0  0  0  0
   -3.2070   -0.8493    2.3048 O   0  0  0  0  0  0  0  0  0  0  0  0
   -2.7447    0.6482    0.5048 C   0  0  0  0  0  0  0  0  0  0  0  0
   -1.2829    0.5732    0.7163 C   0  0  0  0  0  0  0  0  0  0  0  0
   -0.5674   -0.2865   -0.2260 C   0  0  0  0  0  0  0  0  0  0  0  0
    0.1604   -1.2980    0.1998 C   0  0  0  0  0  0  0  0  0  0  0  0
    0.2659   -1.5798    1.6441 C   0  0  0  0  0  0  0  0  0  0  0  0
    0.9010   -2.2079   -0.7223 C   0  0  0  0  0  0  0  0  0  0  0  0
    2.3607   -2.1533   -0.4090 C   0  0  0  0  0  0  0  0  0  0  0  0
    2.8920   -0.7800   -0.5766 C   0  0  0  0  0  0  0  0  0  0  0  0
    2.6657    0.0827    0.2979 O   0  0  0  0  0  0  0  0  0  0  0  0
    3.6405   -0.4361   -1.6938 O   0  0  0  0  0  0  0  0  0  0  0  0
    4.1809    0.8281   -1.9327 C   0  0  0  0  0  0  0  0  0  0  0  0
    5.1757    1.2951   -0.9364 C   0  0  0  0  0  0  0  0  0  0  0  0
    6.3097    0.4494   -0.8757 N   0  0  0  0  0  0  0  0  0  0  0  0
    6.1291   -0.8604   -0.3607 C   0  0  0  0  0  0  0  0  0  0  0  0
    7.4202   -1.5770   -0.0602 C   0  0  0  0  0  0  0  0  0  0  0  0
    8.2530   -0.8844    0.7841 O   0  0  0  0  0  0  0  0  0  0  0  0
    8.0328    0.4651    0.8720 C   0  0  0  0  0  0  0  0  0  0  0  0
    7.5042    1.1054   -0.3879 C   0  0  0  0  0  0  0  0  0  0  0  0
   -6.1363   -0.5686    1.6894 C   0  0  0  0  0  0  0  0  0  0  0  0
   -6.1020   -1.3596    2.6610 O   0  0  0  0  0  0  0  0  0  0  0  0
   -7.3001   -0.1515    1.0678 O   0  0  0  0  0  0  0  0  0  0  0  0
   -7.0021    0.7408    0.0157 C   0  0  0  0  0  0  0  0  0  0  0  0
  1  2  1  0
  2  3  1  0
  3  4  2  0
  4  5  1  0
  4  6  1  0
  6  7  2  0
  7  8  1  0
  8  9  1  0
  8 10  2  0
 10 11  1  0
 11 12  1  0
 12 13  2  0
 13 14  1  0
 13 15  1  0
 15 16  1  0
 16 17  1  0
 17 18  2  0
 17 19  1  0
 19 20  1  0
 20 21  1  0
 21 22  1  0
 22 23  1  0
 23 24  1  0
 24 25  1  0
 25 26  1  0
 26 27  1  0
  7 28  1  0
 28 29  2  0
 28 30  1  0
 30 31  1  0
 10  3  1  0
 27 22  1  0
 31  6  1  0
M  END
>  <zinc_id>  (90) 
ZINC000021297660

>  <smiles>  (90) 
COc1c(C)c2c(c(O)c1C/C=C(\C)CCC(=O)OCCN1CCOCC1)C(=O)OC2

$$$$

     RDKit          3D

 16 17  0  0  0  0  0  0  0  0999 V2000
   -2.9894   -2.7467    1.0338 N   0  0  0  0  0  0  0  0  0  0  0  0
   -2.3686   -1.5264    0.5839 C   0  0  0  0  0  0  0  0  0  0  0  0
   -1.0311   -1.4247    0.5316 N   0  0  0  0  0  0  0  0  0  0  0  0
   -0.4104   -0.3028    0.1174 C   0  0  0  0  0  0  0  0  0  0  0  0
   -1.1791    0.7597   -0.2593 C   0  0  0  0  0  0  0  0  0  0  0  0
   -0.3906    1.7634   -0.6326 N   0  0  0  0  0  0  0  0  0  0  0  0
    0.8653    1.3077   -0.4816 C   0  0  0  0  0  0  0  0  0  0  0  0
    0.8990    0.0593   -0.0290 N   0  0  0  0  0  0  0  0  0  0  0  0
    1.9519   -0.8751    0.2960 C   0  0  0  0  0  0  0  0  0  0  0  0
    2.2799   -0.7127    1.6260 O   0  0  0  0  0  0  0  0  0  0  0  0
    2.8586    0.5154    1.8791 C   0  0  0  0  0  0  0  0  0  0  0  0
    4.1993    0.7008    1.2685 C   0  0  0  0  0  0  0  0  0  0  0  0
    4.2852    0.6033   -0.0782 O   0  0  0  0  0  0  0  0  0  0  0  0
   -2.5770    0.6935   -0.2192 C   0  0  0  0  0  0  0  0  0  0  0  0
   -3.2999    1.6583   -0.5610 O   0  0  0  0  0  0  0  0  0  0  0  0
   -3.0930   -0.4730    0.2100 N   0  0  0  0  0  0  0  0  0  0  0  0
  1  2  1  0
  2  3  2  0
  3  4  1  0
  4  5  2  0
  5  6  1  0
  6  7  2  0
  7  8  1  0
  8  9  1  0
  9 10  1  0
 10 11  1  0
 11 12  1  0
 12 13  1  0
  5 14  1  0
 14 15  2  0
 14 16  1  0
 16  2  1  0
  8  4  1  0
M  END
>  <zinc_id>  (91) 
ZINC000001530555

>  <smiles>  (91) 
Nc1nc2c(ncn2COCCO)c(=O)[nH]1

$$$$

     RDKit          3D

 12 12  0  0  0  0  0  0  0  0999 V2000
    1.6767    2.5221    0.0534 Cl  0  0  0  0  0  0  0  0  0  0  0  0
    0.6439    1.1004    0.6886 C   0  0  1  0  0  0  0  0  0  0  0  0
   -0.2973    0.9517   -0.6091 C   0  0  2  0  0  0  0  0  0  0  0  0
   -0.9205    2.6967   -0.6532 Cl  0  0  0  0  0  0  0  0  0  0  0  0
   -1.4497    0.3337    0.3268 C   0  0  1  0  0  0  0  0  0  0  0  0
   -2.5795   -0.2396   -1.0117 Cl  0  0  0  0  0  0  0  0  0  0  0  0
   -0.7374   -0.9728    0.9298 C   0  0  1  0  0  0  0  0  0  0  0  0
   -1.7341   -2.3915    0.2839 Cl  0  0  0  0  0  0  0  0  0  0  0  0
    0.5007   -1.3098   -0.0352 C   0  0  2  0  0  0  0  0  0  0  0  0
    1.2280   -2.6331    1.0396 Cl  0  0  0  0  0  0  0  0  0  0  0  0
    1.6120   -0.1848    0.3788 C   0  0  1  0  0  0  0  0  0  0  0  0
    2.0573    0.1269   -1.3917 Cl  0  0  0  0  0  0  0  0  0  0  0  0
  2  1  1  6
  2  3  1  0
  3  4  1  1
  3  5  1  0
  5  6  1  6
  5  7  1  0
  7  8  1  6
  7  9  1  0
  9 10  1  1
  9 11  1  0
 11 12  1  6
 11  2  1  0
M  END
>  <zinc_id>  (92) 
ZINC000100024116

>  <smiles>  (92) 
Cl[C@H]1[C@H](Cl)[C@@H](Cl)[C@@H](Cl)[C@H](Cl)[C@H]1Cl

$$$$

     RDKit          3D

 16 17  0  0  0  0  0  0  0  0999 V2000
   -0.5703   -2.6221    0.0284 C   0  0  0  0  0  0  0  0  0  0  0  0
    0.3836   -1.4642    0.0032 C   0  0  0  0  0  0  0  0  0  0  0  0
    1.7112   -1.6567    0.0684 N   0  0  0  0  0  0  0  0  0  0  0  0
    2.5786   -0.6289    0.0469 C   0  0  0  0  0  0  0  0  0  0  0  0
    3.8256   -0.7991    0.1075 O   0  0  0  0  0  0  0  0  0  0  0  0
    2.1231    0.6901   -0.0450 C   0  0  0  0  0  0  0  0  0  0  0  0
    3.0144    1.8066   -0.0704 C   0  0  0  0  0  0  0  0  0  0  0  0
    3.7338    2.7262   -0.0744 N   0  0  0  0  0  0  0  0  0  0  0  0
    0.7680    0.8907   -0.1117 C   0  0  0  0  0  0  0  0  0  0  0  0
   -0.0905   -0.1756   -0.0877 C   0  0  0  0  0  0  0  0  0  0  0  0
   -1.5396    0.0400   -0.1591 C   0  0  0  0  0  0  0  0  0  0  0  0
   -2.1152    0.9085   -1.0479 C   0  0  0  0  0  0  0  0  0  0  0  0
   -3.4832    1.0427   -1.0392 C   0  0  0  0  0  0  0  0  0  0  0  0
   -4.2958    0.3706   -0.2078 N   0  0  0  0  0  0  0  0  0  0  0  0
   -3.7056   -0.4782    0.6577 C   0  0  0  0  0  0  0  0  0  0  0  0
   -2.3380   -0.6506    0.6910 C   0  0  0  0  0  0  0  0  0  0  0  0
  1  2  1  0
  2  3  1  0
  3  4  1  0
  4  5  2  0
  4  6  1  0
  6  7  1  0
  7  8  3  0
  6  9  2  0
  9 10  1  0
 10 11  1  0
 11 12  2  0
 12 13  1  0
 13 14  2  0
 14 15  1  0
 15 16  2  0
 10  2  2  0
 16 11  1  0
M  END
>  <zinc_id>  (93) 
ZINC000009224016

>  <smiles>  (93) 
Cc1[nH]c(=O)c(C#N)cc1-c1ccncc1

$$$$

     RDKit          3D

 30 31  0  0  0  0  0  0  0  0999 V2000
    7.4729   -2.2540    1.3418 C   0  0  0  0  0  0  0  0  0  0  0  0
    6.6496   -2.1144    0.6448 O   0  0  0  0  0  0  0  0  0  0  0  0
    5.5438   -1.3574    0.9425 C   0  0  0  0  0  0  0  0  0  0  0  0
    4.5363   -1.3151   -0.1889 C   0  0  0  0  0  0  0  0  0  0  0  0
    3.4466   -0.5029    0.2480 O   0  0  0  0  0  0  0  0  0  0  0  0
    2.3385   -0.2543   -0.5582 C   0  0  0  0  0  0  0  0  0  0  0  0
    2.3976   -0.8171   -1.7058 O   0  0  0  0  0  0  0  0  0  0  0  0
    1.2124    0.5658   -0.1483 C   0  0  0  0  0  0  0  0  0  0  0  0
    1.2107    1.1075    1.0231 C   0  0  0  0  0  0  0  0  0  0  0  0
    2.3897    0.8655    1.9296 C   0  0  0  0  0  0  0  0  0  0  0  0
    0.1671    1.9234    1.5237 N   0  0  0  0  0  0  0  0  0  0  0  0
   -0.9123    2.1331    0.6682 C   0  0  0  0  0  0  0  0  0  0  0  0
   -2.0372    3.0106    1.2036 C   0  0  0  0  0  0  0  0  0  0  0  0
   -0.9664    1.6183   -0.5127 C   0  0  0  0  0  0  0  0  0  0  0  0
   -2.1557    1.9138   -1.3159 C   0  0  0  0  0  0  0  0  0  0  0  0
   -2.3320    1.4741   -2.4823 O   0  0  0  0  0  0  0  0  0  0  0  0
   -3.1867    2.7109   -0.8404 O   0  0  0  0  0  0  0  0  0  0  0  0
   -4.3403    3.0037   -1.6061 C   0  0  0  0  0  0  0  0  0  0  0  0
   -5.2606    3.8925   -0.7977 C   0  0  0  0  0  0  0  0  0  0  0  0
   -3.8638    3.8245   -2.7906 C   0  0  0  0  0  0  0  0  0  0  0  0
    0.0821    0.7199   -1.1863 C   0  0  2  0  0  0  0  0  0  0  0  0
   -0.6173   -0.7011   -0.9074 C   0  0  0  0  0  0  0  0  0  0  0  0
   -0.9691   -1.4238   -1.9953 C   0  0  0  0  0  0  0  0  0  0  0  0
   -1.5718   -2.6488   -1.8086 C   0  0  0  0  0  0  0  0  0  0  0  0
   -1.8086   -3.1222   -0.5362 C   0  0  0  0  0  0  0  0  0  0  0  0
   -1.4244   -2.3336    0.5546 C   0  0  0  0  0  0  0  0  0  0  0  0
   -1.6684   -2.8213    1.8561 N   0  0  0  0  0  0  0  0  0  0  0  0
   -2.2063   -3.9143    2.0579 O   0  0  0  0  0  0  0  0  0  0  0  0
   -1.3054   -2.0758    2.9390 O   0  0  0  0  0  0  0  0  0  0  0  0
   -0.8210   -1.1074    0.3507 C   0  0  0  0  0  0  0  0  0  0  0  0
  1  2  1  0
  2  3  1  0
  3  4  1  0
  4  5  1  0
  5  6  1  0
  6  7  2  0
  6  8  1  0
  8  9  2  0
  9 10  1  0
  9 11  1  0
 11 12  1  0
 12 13  1  0
 12 14  2  0
 14 15  1  0
 15 16  2  0
 15 17  1  0
 17 18  1  0
 18 19  1  0
 18 20  1  0
 14 21  1  0
 21 22  1  1
 22 23  2  0
 23 24  1  0
 24 25  2  0
 25 26  1  0
 26 27  1  0
 27 28  2  0
 27 29  1  0
 26 30  2  0
 21  8  1  0
 30 22  1  0
M  CHG  2  27   1  29  -1
M  END
>  <zinc_id>  (94) 
ZINC000019632713

>  <smiles>  (94) 
COCCOC(=O)C1=C(C)NC(C)=C(C(=O)OC(C)C)[C@@H]1c1cccc([N+](=O)[O-])c1

$$$$

     RDKit          3D

 50 53  0  0  0  0  0  0  0  0999 V2000
   10.0765    2.1041   -0.7972 C   0  0  0  0  0  0  0  0  0  0  0  0
    8.9529    1.9793   -1.8287 C   0  0  0  0  0  0  0  0  0  0  0  0
    9.2140    0.6882   -2.5689 C   0  0  0  0  0  0  0  0  0  0  0  0
    7.6867    1.7880   -1.0177 C   0  0  0  0  0  0  0  0  0  0  0  0
    7.5860    1.3902    0.2417 N   0  0  0  0  0  0  0  0  0  0  0  0
    6.3950    1.2788    0.7820 C   0  0  0  0  0  0  0  0  0  0  0  0
    6.1045    0.8360    2.2111 C   0  0  0  0  0  0  0  0  0  0  0  0
    5.9306   -0.5819    2.2109 N   0  0  0  0  0  0  0  0  0  0  0  0
    7.1542   -1.3778    2.4035 C   0  0  0  0  0  0  0  0  0  0  0  0
    4.6986   -1.2535    2.0429 C   0  0  0  0  0  0  0  0  0  0  0  0
    4.6791   -2.5172    2.0643 O   0  0  0  0  0  0  0  0  0  0  0  0
    3.4662   -0.6102    1.8504 N   0  0  0  0  0  0  0  0  0  0  0  0
    2.2111   -1.5235    1.6899 C   0  0  2  0  0  0  0  0  0  0  0  0
    1.5136   -0.7204    0.5021 C   0  0  0  0  0  0  0  0  0  0  0  0
    1.9663    0.3132    0.0557 O   0  0  0  0  0  0  0  0  0  0  0  0
    0.2888   -1.3424    0.0118 N   0  0  0  0  0  0  0  0  0  0  0  0
   -0.2272   -0.3501   -1.1405 C   0  0  1  0  0  0  0  0  0  0  0  0
   -0.9225   -1.5146   -1.9972 C   0  0  0  0  0  0  0  0  0  0  0  0
    0.0750   -2.5068   -2.3811 C   0  0  0  0  0  0  0  0  0  0  0  0
    0.7055   -2.4032   -3.5789 C   0  0  0  0  0  0  0  0  0  0  0  0
    1.6747   -3.3326   -3.9736 C   0  0  0  0  0  0  0  0  0  0  0  0
    1.9553   -4.3514   -3.0890 C   0  0  0  0  0  0  0  0  0  0  0  0
    1.3152   -4.4432   -1.8892 C   0  0  0  0  0  0  0  0  0  0  0  0
    0.3594   -3.5277   -1.5020 C   0  0  0  0  0  0  0  0  0  0  0  0
   -1.4550    0.1180   -0.2715 C   0  0  0  0  0  0  0  0  0  0  0  0
   -2.4666   -0.9798    0.0893 C   0  0  2  0  0  0  0  0  0  0  0  0
   -3.0107   -1.3441   -1.1824 O   0  0  0  0  0  0  0  0  0  0  0  0
   -3.4346   -0.3580    1.0675 C   0  0  2  0  0  0  0  0  0  0  0  0
   -4.3449   -1.5382    1.5484 C   0  0  0  0  0  0  0  0  0  0  0  0
   -5.1113   -2.2468    0.5828 C   0  0  0  0  0  0  0  0  0  0  0  0
   -6.3428   -1.8230    0.1339 C   0  0  0  0  0  0  0  0  0  0  0  0
   -7.1120   -2.5076   -0.7693 C   0  0  0  0  0  0  0  0  0  0  0  0
   -6.6558   -3.6962   -1.2793 C   0  0  0  0  0  0  0  0  0  0  0  0
   -5.4341   -4.1796   -0.8736 C   0  0  0  0  0  0  0  0  0  0  0  0
   -4.7110   -3.4427    0.0368 C   0  0  0  0  0  0  0  0  0  0  0  0
   -4.2163    0.7503    1.0234 N   0  0  0  0  0  0  0  0  0  0  0  0
   -4.3439    1.9169    0.3715 C   0  0  0  0  0  0  0  0  0  0  0  0
   -3.5196    2.1715   -0.5283 O   0  0  0  0  0  0  0  0  0  0  0  0
   -5.2988    2.9223    0.5662 O   0  0  0  0  0  0  0  0  0  0  0  0
   -5.2244    4.0746   -0.2457 C   0  0  0  0  0  0  0  0  0  0  0  0
   -6.2650    5.0545    0.0891 C   0  0  0  0  0  0  0  0  0  0  0  0
   -7.4670    5.1352   -0.5354 C   0  0  0  0  0  0  0  0  0  0  0  0
   -8.3056    6.0394   -0.1460 N   0  0  0  0  0  0  0  0  0  0  0  0
   -7.9626    6.8520    0.8470 C   0  0  0  0  0  0  0  0  0  0  0  0
   -6.3835    6.3100    1.2436 S   0  0  0  0  0  0  0  0  0  0  0  0
    1.3474   -0.7290    2.8603 C   0  0  0  0  0  0  0  0  0  0  0  0
    1.1951    0.6865    2.4963 C   0  0  0  0  0  0  0  0  0  0  0  0
    2.2738   -0.8112    4.0616 C   0  0  0  0  0  0  0  0  0  0  0  0
    5.3266    1.5854   -0.0083 C   0  0  0  0  0  0  0  0  0  0  0  0
    6.0631    2.0184   -1.4799 S   0  0  0  0  0  0  0  0  0  0  0  0
  1  2  1  0
  2  3  1  0
  2  4  1  0
  4  5  2  0
  5  6  1  0
  6  7  1  0
  7  8  1  0
  8  9  1  0
  8 10  1  0
 10 11  2  0
 10 12  1  0
 13 12  1  1
 13 14  1  0
 14 15  2  0
 14 16  1  0
 16 17  1  0
 17 18  1  6
 18 19  1  0
 19 20  2  0
 20 21  1  0
 21 22  2  0
 22 23  1  0
 23 24  2  0
 17 25  1  0
 25 26  1  0
 26 27  1  6
 26 28  1  0
 28 29  1  6
 29 30  1  0
 30 31  2  0
 31 32  1  0
 32 33  2  0
 33 34  1  0
 34 35  2  0
 28 36  1  0
 36 37  1  0
 37 38  2  0
 37 39  1  0
 39 40  1  0
 40 41  1  0
 41 42  2  0
 42 43  1  0
 43 44  2  0
 44 45  1  0
 13 46  1  0
 46 47  1  0
 46 48  1  0
  6 49  2  0
 49 50  1  0
 50  4  1  0
 24 19  1  0
 35 30  1  0
 45 41  1  0
M  END
>  <zinc_id>  (95) 
ZINC000003944422

>  <smiles>  (95) 
CC(C)c1nc(CN(C)C(=O)N[C@H](C(=O)N[C@@H](Cc2ccccc2)C[C@H](O)[C@H](Cc2ccccc2)NC(=O)OCc2cncs2)C(C)C)cs1

$$$$

     RDKit          3D

 11 11  0  0  0  0  0  0  0  0999 V2000
   -1.8361    1.4909   -0.7859 C   0  0  0  0  0  0  0  0  0  0  0  0
   -2.0035    0.0857   -0.2717 C   0  0  0  0  0  0  0  0  0  0  0  0
   -1.8237   -0.8903   -1.4181 C   0  0  0  0  0  0  0  0  0  0  0  0
   -3.3881   -0.0712    0.1996 N   0  0  0  0  0  0  0  0  0  0  0  0
   -1.1385   -0.2368    0.8959 C   0  0  0  0  0  0  0  0  0  0  0  0
    0.3038   -0.1161    0.6512 C   0  0  0  0  0  0  0  0  0  0  0  0
    1.0081   -1.2121    0.1920 C   0  0  0  0  0  0  0  0  0  0  0  0
    2.3663   -1.1809   -0.0628 C   0  0  0  0  0  0  0  0  0  0  0  0
    3.0751   -0.0104    0.1438 C   0  0  0  0  0  0  0  0  0  0  0  0
    2.3997    1.1053    0.6032 C   0  0  0  0  0  0  0  0  0  0  0  0
    1.0370    1.0360    0.8477 C   0  0  0  0  0  0  0  0  0  0  0  0
  1  2  1  0
  2  3  1  0
  2  4  1  0
  2  5  1  0
  5  6  1  0
  6  7  2  0
  7  8  1  0
  8  9  2  0
  9 10  1  0
 10 11  2  0
 11  6  1  0
M  END
>  <zinc_id>  (96) 
ZINC000008403947

>  <smiles>  (96) 
CC(C)(N)Cc1ccccc1

$$$$

     RDKit          3D

 43 50  0  0  0  0  0  0  0  0999 V2000
    4.9231   -3.3057    0.1130 C   0  0  0  0  0  0  0  0  0  0  0  0
    4.3740   -2.5895    0.0582 N   0  0  0  0  0  0  0  0  0  0  0  0
    2.9656   -2.4452   -0.2545 C   0  0  0  0  0  0  0  0  0  0  0  0
    2.4639   -1.9505    1.2507 C   0  0  2  0  0  0  0  0  0  0  0  0
    1.0488   -1.5048    0.7725 C   0  0  0  0  0  0  0  0  0  0  0  0
    0.5668   -0.4171    0.7938 O   0  0  0  0  0  0  0  0  0  0  0  0
    0.2628   -2.5231    0.2587 N   0  0  0  0  0  0  0  0  0  0  0  0
   -1.0584   -2.3262   -0.2271 C   0  0  2  0  0  0  0  0  0  0  0  0
   -1.4866   -3.7162   -0.6724 C   0  0  0  0  0  0  0  0  0  0  0  0
   -1.3018   -1.3461   -1.0989 O   0  0  0  0  0  0  0  0  0  0  0  0
   -2.4789   -0.7000   -0.8632 C   0  0  1  0  0  0  0  0  0  0  0  0
   -2.3084    0.6249   -1.1386 O   0  0  0  0  0  0  0  0  0  0  0  0
   -3.5848   -1.3335   -1.8689 C   0  0  2  0  0  0  0  0  0  0  0  0
   -3.1410   -0.4596   -3.1477 C   0  0  0  0  0  0  0  0  0  0  0  0
   -4.4304    0.0246   -3.6815 C   0  0  0  0  0  0  0  0  0  0  0  0
   -5.3952    0.0253   -2.5684 C   0  0  0  0  0  0  0  0  0  0  0  0
   -4.7400   -0.5170   -1.4220 N   0  0  0  0  0  0  0  0  0  0  0  0
   -5.0527   -0.4248   -0.1025 C   0  0  0  0  0  0  0  0  0  0  0  0
   -6.2930   -0.2497    0.2956 O   0  0  0  0  0  0  0  0  0  0  0  0
   -4.0897   -0.5035    1.1317 C   0  0  2  0  0  0  0  0  0  0  0  0
   -3.6051    1.0210    1.1901 C   0  0  0  0  0  0  0  0  0  0  0  0
   -4.6770    1.9460    1.4019 C   0  0  0  0  0  0  0  0  0  0  0  0
   -5.1806    2.2709    2.6366 C   0  0  0  0  0  0  0  0  0  0  0  0
   -6.1875    3.2047    2.7027 C   0  0  0  0  0  0  0  0  0  0  0  0
   -6.7087    3.8241    1.5878 C   0  0  0  0  0  0  0  0  0  0  0  0
   -6.2113    3.5063    0.3421 C   0  0  0  0  0  0  0  0  0  0  0  0
   -5.2022    2.5678    0.2977 C   0  0  0  0  0  0  0  0  0  0  0  0
   -2.8466   -1.0619    0.4158 N   0  0  0  0  0  0  0  0  0  0  0  0
   -1.9432   -1.9874    0.9465 C   0  0  0  0  0  0  0  0  0  0  0  0
   -1.8373   -2.4683    2.1197 O   0  0  0  0  0  0  0  0  0  0  0  0
    3.1574   -0.5350    1.1115 C   0  0  0  0  0  0  0  0  0  0  0  0
    4.1314   -0.3025    0.3756 C   0  0  0  0  0  0  0  0  0  0  0  0
    4.6866    1.0449    0.3242 C   0  0  0  0  0  0  0  0  0  0  0  0
    3.8728    2.1664    0.4227 C   0  0  0  0  0  0  0  0  0  0  0  0
    4.5354    3.3960    0.3002 C   0  0  0  0  0  0  0  0  0  0  0  0
    5.9186    3.4809    0.0934 C   0  0  0  0  0  0  0  0  0  0  0  0
    6.7010    2.3310    0.0013 C   0  0  0  0  0  0  0  0  0  0  0  0
    7.9858    1.9894   -0.1748 N   0  0  0  0  0  0  0  0  0  0  0  0
    8.1083    0.6182   -0.1575 C   0  0  0  0  0  0  0  0  0  0  0  0
    6.8374    0.0510    0.0400 C   0  0  0  0  0  0  0  0  0  0  0  0
    6.0355    1.1577    0.1242 C   0  0  0  0  0  0  0  0  0  0  0  0
    6.2934   -1.3140    0.2012 C   0  0  0  0  0  0  0  0  0  0  0  0
    4.8915   -1.2694   -0.5843 C   0  0  1  0  0  0  0  0  0  0  0  0
  1  2  1  0
  2  3  1  0
  3  4  1  0
  4  5  1  6
  5  6  2  0
  5  7  1  0
  7  8  1  0
  8  9  1  6
  8 10  1  0
 10 11  1  0
 11 12  1  1
 11 13  1  0
 13 14  1  6
 14 15  1  0
 15 16  1  0
 16 17  1  0
 17 18  1  0
 18 19  2  0
 18 20  1  0
 20 21  1  6
 21 22  1  0
 22 23  2  0
 23 24  1  0
 24 25  2  0
 25 26  1  0
 26 27  2  0
 20 28  1  0
 28 29  1  0
 29 30  2  0
  4 31  1  0
 31 32  2  0
 32 33  1  0
 33 34  2  0
 34 35  1  0
 35 36  2  0
 36 37  1  0
 37 38  1  0
 38 39  1  0
 39 40  2  0
 40 41  1  0
 40 42  1  0
 43 42  1  1
 43  2  1  0
 29  8  1  0
 43 32  1  0
 28 11  1  0
 41 33  1  0
 17 13  1  0
 27 22  1  0
 41 37  2  0
M  END
>  <zinc_id>  (97) 
ZINC000052955754

>  <smiles>  (97) 
CN1C[C@H](C(=O)N[C@]2(C)O[C@@]3(O)[C@@H]4CCCN4C(=O)[C@H](Cc4ccccc4)N3C2=O)C=C2c3cccc4[nH]cc(c34)C[C@H]21

$$$$

     RDKit          3D

 23 26  0  0  0  0  0  0  0  0999 V2000
   -4.6675   -0.1275    1.4969 C   0  0  0  0  0  0  0  0  0  0  0  0
   -4.2103    0.2981    0.4776 C   0  0  0  0  0  0  0  0  0  0  0  0
   -3.6385    0.8307   -0.7788 C   0  0  2  0  0  0  0  0  0  0  0  0
   -4.2911    1.9424   -1.2315 O   0  0  0  0  0  0  0  0  0  0  0  0
   -3.7140   -0.3339   -1.7810 C   0  0  0  0  0  0  0  0  0  0  0  0
   -2.4957   -1.2122   -1.4832 C   0  0  0  0  0  0  0  0  0  0  0  0
   -1.9816   -0.5475   -0.0960 C   0  0  1  0  0  0  0  0  0  0  0  0
   -0.3288   -0.6097   -0.5271 C   0  0  2  0  0  0  0  0  0  0  0  0
   -0.2117   -2.0732    0.1560 C   0  0  0  0  0  0  0  0  0  0  0  0
    0.9262   -2.1151    1.0894 C   0  0  0  0  0  0  0  0  0  0  0  0
    2.0105   -1.1604    0.7865 C   0  0  0  0  0  0  0  0  0  0  0  0
    3.3451   -1.4725    0.6491 C   0  0  0  0  0  0  0  0  0  0  0  0
    4.2826   -0.4745    0.3538 C   0  0  0  0  0  0  0  0  0  0  0  0
    5.5846   -0.8678    0.2342 O   0  0  0  0  0  0  0  0  0  0  0  0
    6.6722   -0.0488   -0.0531 C   0  0  0  0  0  0  0  0  0  0  0  0
    3.8405    0.8335    0.2026 C   0  0  0  0  0  0  0  0  0  0  0  0
    2.4873    1.1655    0.3396 C   0  0  0  0  0  0  0  0  0  0  0  0
    1.6571    0.1563    0.6216 C   0  0  0  0  0  0  0  0  0  0  0  0
    0.0985    0.2890    0.8314 C   0  0  1  0  0  0  0  0  0  0  0  0
   -0.0700    1.7320    0.0849 C   0  0  0  0  0  0  0  0  0  0  0  0
   -1.5701    1.8977    0.2546 C   0  0  0  0  0  0  0  0  0  0  0  0
   -2.1644    0.9453   -0.7030 C   0  0  2  0  0  0  0  0  0  0  0  0
   -1.5608    0.9526   -2.0742 C   0  0  0  0  0  0  0  0  0  0  0  0
  1  2  3  0
  2  3  1  0
  3  4  1  6
  3  5  1  0
  5  6  1  0
  7  6  1  6
  7  8  1  0
  8  9  1  1
  9 10  1  0
 10 11  1  0
 11 12  2  0
 12 13  1  0
 13 14  1  0
 14 15  1  0
 13 16  2  0
 16 17  1  0
 17 18  2  0
 18 19  1  0
 19 20  1  6
 20 21  1  0
 21 22  1  0
 22 23  1  6
 22  3  1  0
 22  7  1  0
 19  8  1  0
 18 11  1  0
M  END
>  <zinc_id>  (98) 
ZINC000003815424

>  <smiles>  (98) 
C#C[C@]1(O)CC[C@H]2[C@@H]3CCc4cc(OC)ccc4[C@H]3CC[C@@]21C

$$$$

     RDKit          3D

 41 46  0  0  0  0  0  0  0  0999 V2000
    5.6003   -3.7613    0.6296 C   0  0  0  0  0  0  0  0  0  0  0  0
    4.9431   -2.7027    1.4207 C   0  0  0  0  0  0  0  0  0  0  0  0
    4.6131   -2.9572    2.5967 O   0  0  0  0  0  0  0  0  0  0  0  0
    4.7136   -1.4880    0.8599 O   0  0  0  0  0  0  0  0  0  0  0  0
    4.0340   -0.3940    1.6489 C   0  0  1  0  0  0  0  0  0  0  0  0
    4.1654    0.7913    0.4433 C   0  0  1  0  0  0  0  0  0  0  0  0
    5.6520    0.6575    0.0923 N   0  0  0  0  0  0  0  0  0  0  0  0
    6.4661    0.3351    1.1711 C   0  0  0  0  0  0  0  0  0  0  0  0
    5.9520    2.1167    0.0008 C   0  0  0  0  0  0  0  0  0  0  0  0
    5.0082    2.7997   -0.9314 C   0  0  0  0  0  0  0  0  0  0  0  0
    5.3615    2.3032   -2.3309 C   0  0  0  0  0  0  0  0  0  0  0  0
    6.3270    1.1442   -2.2056 C   0  0  0  0  0  0  0  0  0  0  0  0
    5.8417    0.1224   -1.1697 C   0  0  0  0  0  0  0  0  0  0  0  0
    3.4411   -0.1330   -0.7036 C   0  0  0  0  0  0  0  0  0  0  0  0
    2.1958    0.3907    0.2097 C   0  0  1  0  0  0  0  0  0  0  0  0
    0.9033   -0.5025   -0.3338 C   0  0  2  0  0  0  0  0  0  0  0  0
    0.7176    0.0801   -1.8076 C   0  0  0  0  0  0  0  0  0  0  0  0
   -0.4312   -0.9528   -1.9995 C   0  0  0  0  0  0  0  0  0  0  0  0
   -1.7084   -0.1374   -1.4320 C   0  0  1  0  0  0  0  0  0  0  0  0
   -2.7415   -1.3558   -1.4872 C   0  0  0  0  0  0  0  0  0  0  0  0
   -3.8523   -1.0139   -0.2493 C   0  0  2  0  0  0  0  0  0  0  0  0
   -4.9710   -1.5705   -1.0532 O   0  0  0  0  0  0  0  0  0  0  0  0
   -6.1240   -1.8071   -0.3510 C   0  0  0  0  0  0  0  0  0  0  0  0
   -7.3687   -2.3425   -1.0402 C   0  0  0  0  0  0  0  0  0  0  0  0
   -6.3399   -1.6394    0.8750 O   0  0  0  0  0  0  0  0  0  0  0  0
   -3.7514    0.5771   -0.6644 C   0  0  1  0  0  0  0  0  0  0  0  0
   -4.8493    1.3596   -0.0510 N   0  0  0  0  0  0  0  0  0  0  0  0
   -4.2383    2.7254   -0.4375 C   0  0  0  0  0  0  0  0  0  0  0  0
   -5.9711    1.3636   -0.9325 C   0  0  0  0  0  0  0  0  0  0  0  0
   -7.1969    1.9396   -0.2910 C   0  0  0  0  0  0  0  0  0  0  0  0
   -6.7670    3.0881    0.5580 C   0  0  0  0  0  0  0  0  0  0  0  0
   -5.7064    2.7888    1.5528 C   0  0  0  0  0  0  0  0  0  0  0  0
   -4.9906    1.4552    1.3064 C   0  0  0  0  0  0  0  0  0  0  0  0
   -2.5989    0.7658    0.5445 C   0  0  0  0  0  0  0  0  0  0  0  0
   -1.4631   -0.1748    0.1522 C   0  0  1  0  0  0  0  0  0  0  0  0
   -1.4136   -1.4701    0.7262 C   0  0  0  0  0  0  0  0  0  0  0  0
   -0.0872    0.6478    0.3913 C   0  0  1  0  0  0  0  0  0  0  0  0
    0.2014    0.0725    1.8628 C   0  0  0  0  0  0  0  0  0  0  0  0
    1.5384   -0.2343    2.2255 C   0  0  0  0  0  0  0  0  0  0  0  0
    2.5160   -0.7798    1.2887 C   0  0  2  0  0  0  0  0  0  0  0  0
    2.3795   -2.1072    0.7626 C   0  0  0  0  0  0  0  0  0  0  0  0
  1  2  1  0
  2  3  2  0
  2  4  1  0
  5  4  1  6
  5  6  1  0
  6  7  1  6
  7  8  1  0
  7  9  1  0
  9 10  1  0
 10 11  1  0
 11 12  1  0
 12 13  1  0
  6 14  1  0
 15 14  1  6
 15 16  1  0
 16 17  1  6
 17 18  1  0
 19 18  1  6
 19 20  1  0
 20 21  1  0
 21 22  1  6
 22 23  1  0
 23 24  1  0
 23 25  2  0
 21 26  1  0
 26 27  1  1
 27 28  1  0
 27 29  1  0
 29 30  1  0
 30 31  1  0
 31 32  1  0
 32 33  1  0
 26 34  1  0
 34 35  1  0
 35 36  1  1
 35 37  1  0
 37 38  1  1
 38 39  1  0
 39 40  1  0
 40 41  1  6
 40  5  1  0
 13  7  1  0
 40 15  1  0
 37 16  1  0
 35 19  1  0
 33 27  1  0
M  CHG  2   7   1  27   1
M  END
>  <zinc_id>  (99) 
ZINC000004097383

>  <smiles>  (99) 
CC(=O)O[C@H]1C[C@@H]2CC[C@@H]3[C@H](CC[C@@]4(C)[C@H]3C[C@H]([N+]3(C)CCCCC3)[C@@H]4OC(C)=O)[C@@]2(C)C[C@@H]1[N+]1(C)CCCCC1

$$$$

     RDKit          3D

 19 21  0  0  0  0  0  0  0  0999 V2000
    6.5464    0.0861    0.8545 C   0  0  0  0  0  0  0  0  0  0  0  0
    5.1154    0.3249    1.1647 C   0  0  0  0  0  0  0  0  0  0  0  0
    4.2228   -0.4321    0.2314 C   0  0  0  0  0  0  0  0  0  0  0  0
    4.7646   -1.1441   -0.6594 O   0  0  0  0  0  0  0  0  0  0  0  0
    2.8282   -0.3944    0.2912 N   0  0  0  0  0  0  0  0  0  0  0  0
    1.9960   -1.1148   -0.5972 C   0  0  0  0  0  0  0  0  0  0  0  0
    0.5313   -0.9993   -0.4400 C   0  0  0  0  0  0  0  0  0  0  0  0
    0.0197    0.4994   -0.6222 C   0  0  2  0  0  0  0  0  0  0  0  0
    0.8022    1.1596    0.5873 C   0  0  0  0  0  0  0  0  0  0  0  0
    0.2427    0.5685    1.8254 C   0  0  0  0  0  0  0  0  0  0  0  0
   -1.1683    0.3666    1.4532 C   0  0  0  0  0  0  0  0  0  0  0  0
   -2.2868    0.2231    2.2619 C   0  0  0  0  0  0  0  0  0  0  0  0
   -3.5430    0.0434    1.6896 C   0  0  0  0  0  0  0  0  0  0  0  0
   -3.7120    0.0031    0.3199 C   0  0  0  0  0  0  0  0  0  0  0  0
   -2.6037    0.1452   -0.4793 C   0  0  0  0  0  0  0  0  0  0  0  0
   -1.3504    0.3248    0.1230 C   0  0  0  0  0  0  0  0  0  0  0  0
   -3.0530    0.0627   -1.8893 C   0  0  0  0  0  0  0  0  0  0  0  0
   -4.5137    0.4387   -1.7815 C   0  0  0  0  0  0  0  0  0  0  0  0
   -4.8383   -0.1614   -0.5145 O   0  0  0  0  0  0  0  0  0  0  0  0
  1  2  1  0
  2  3  1  0
  3  4  2  0
  3  5  1  0
  5  6  1  0
  6  7  1  0
  8  7  1  1
  8  9  1  0
  9 10  1  0
 10 11  1  0
 11 12  2  0
 12 13  1  0
 13 14  2  0
 14 15  1  0
 15 16  2  0
 15 17  1  0
 17 18  1  0
 18 19  1  0
 16  8  1  0
 16 11  1  0
 19 14  1  0
M  END
>  <zinc_id>  (100) 
ZINC000003960338

>  <smiles>  (100) 
CCC(=O)NCC[C@@H]1CCc2ccc3c(c21)CCO3

$$$$

     RDKit          2D

 17 18  0  0  0  0  0  0  0  0999 V2000
    5.5837   -0.5153    0.0000 N   0  0  0  0  0  0  0  0  0  0  0  0
    4.0855   -0.4436    0.0000 C   0  0  0  0  0  0  0  0  0  0  0  0
    3.2743   -1.7054    0.0000 N   0  0  0  0  0  0  0  0  0  0  0  0
    1.7760   -1.6337    0.0000 C   0  0  0  0  0  0  0  0  0  0  0  0
    1.0889   -0.3004    0.0000 N   0  0  0  0  0  0  0  0  0  0  0  0
   -0.4094   -0.2287    0.0000 C   0  0  0  0  0  0  0  0  0  0  0  0
   -1.3480   -1.3988    0.0000 O   0  0  0  0  0  0  0  0  0  0  0  0
   -2.7508   -0.8677    0.0000 C   0  0  0  0  0  0  0  0  0  0  0  0
   -4.0051   -1.6904    0.0000 C   0  0  0  0  0  0  0  0  0  0  0  0
   -5.3447   -1.0155    0.0000 O   0  0  0  0  0  0  0  0  0  0  0  0
   -2.6792    0.6306    0.0000 C   0  0  0  0  0  0  0  0  0  0  0  0
   -3.8493    1.5692    0.0000 O   0  0  0  0  0  0  0  0  0  0  0  0
   -1.2321    1.0255    0.0000 C   0  0  0  0  0  0  0  0  0  0  0  0
   -0.7010    2.4283    0.0000 O   0  0  0  0  0  0  0  0  0  0  0  0
    1.9001    0.9614    0.0000 C   0  0  0  0  0  0  0  0  0  0  0  0
    1.2129    2.2947    0.0000 O   0  0  0  0  0  0  0  0  0  0  0  0
    3.3983    0.8897    0.0000 N   0  0  0  0  0  0  0  0  0  0  0  0
  1  2  1  0
  2  3  1  0
  3  4  2  0
  4  5  1  0
  6  5  1  6
  6  7  1  0
  7  8  1  0
  8  9  1  6
  9 10  1  0
  8 11  1  0
 11 12  1  1
 11 13  1  0
 13 14  1  1
  5 15  1  0
 15 16  2  0
 15 17  1  0
 17  2  2  0
 13  6  1  0
M  END
>  <zinc_id>  (101) 
ZINC000003861768

>  <smiles>  (101) 
Nc1ncn([C@@H]2O[C@H](CO)[C@@H](O)[C@H]2O)c(=O)n1

$$$$

     RDKit          3D

 25 27  0  0  0  0  0  0  0  0999 V2000
   -2.4244   -2.8860    1.0472 F   0  0  0  0  0  0  0  0  0  0  0  0
   -3.0200   -1.8839    0.3266 C   0  0  0  0  0  0  0  0  0  0  0  0
   -4.3304   -2.1029   -0.0815 C   0  0  0  0  0  0  0  0  0  0  0  0
   -4.9951   -1.1517   -0.8037 C   0  0  0  0  0  0  0  0  0  0  0  0
   -4.3219    0.0151   -1.1063 C   0  0  0  0  0  0  0  0  0  0  0  0
   -3.0184    0.2197   -0.6938 C   0  0  0  0  0  0  0  0  0  0  0  0
   -2.3568   -0.7208    0.0220 C   0  0  0  0  0  0  0  0  0  0  0  0
   -0.9892   -0.5543    0.4780 C   0  0  0  0  0  0  0  0  0  0  0  0
   -0.4532   -1.4977    1.1442 N   0  0  0  0  0  0  0  0  0  0  0  0
    0.7756   -1.8039    1.7743 C   0  0  0  0  0  0  0  0  0  0  0  0
    1.8760   -0.8456    1.5943 C   0  0  0  0  0  0  0  0  0  0  0  0
    3.1670   -1.0536    2.6104 S   0  0  0  0  0  0  0  0  0  0  0  0
    2.0588    0.2504    0.7097 N   0  0  0  0  0  0  0  0  0  0  0  0
    3.3481    0.6040    0.2232 C   0  0  0  0  0  0  0  0  0  0  0  0
    3.9394   -0.3747   -0.7511 C   0  0  0  0  0  0  0  0  0  0  0  0
    3.1293   -0.5145   -1.8844 F   0  0  0  0  0  0  0  0  0  0  0  0
    5.1523    0.1201   -1.2192 F   0  0  0  0  0  0  0  0  0  0  0  0
    4.1725   -1.6212   -0.2759 F   0  0  0  0  0  0  0  0  0  0  0  0
    0.9931    1.0917    0.2097 C   0  0  0  0  0  0  0  0  0  0  0  0
    1.4136    2.3408   -0.1867 C   0  0  0  0  0  0  0  0  0  0  0  0
    0.4429    3.2043   -0.6814 C   0  0  0  0  0  0  0  0  0  0  0  0
   -0.8941    2.8451   -0.7799 C   0  0  0  0  0  0  0  0  0  0  0  0
   -2.0214    4.0278   -1.4198 Cl  0  0  0  0  0  0  0  0  0  0  0  0
   -1.2987    1.5790   -0.3741 C   0  0  0  0  0  0  0  0  0  0  0  0
   -0.3452    0.7129    0.1183 C   0  0  0  0  0  0  0  0  0  0  0  0
  1  2  1  0
  2  3  2  0
  3  4  1  0
  4  5  2  0
  5  6  1  0
  6  7  2  0
  7  8  1  0
  8  9  2  0
  9 10  1  0
 10 11  1  0
 11 12  2  0
 11 13  1  0
 13 14  1  0
 14 15  1  0
 15 16  1  0
 15 17  1  0
 15 18  1  0
 13 19  1  0
 19 20  2  0
 20 21  1  0
 21 22  2  0
 22 23  1  0
 22 24  1  0
 24 25  2  0
  7  2  1  0
 25  8  1  0
 25 19  1  0
M  END
>  <zinc_id>  (102) 
ZINC000000538266

>  <smiles>  (102) 
Fc1ccccc1C1=NCC(=S)N(CC(F)(F)F)c2ccc(Cl)cc21

$$$$

     RDKit          3D

 67 72  0  0  0  0  0  0  0  0999 V2000
   10.7354   -3.7696    3.3489 C   0  0  0  0  0  0  0  0  0  0  0  0
   10.1321   -2.5665    3.2996 O   0  0  0  0  0  0  0  0  0  0  0  0
    8.9427   -2.3507    2.6235 C   0  0  0  0  0  0  0  0  0  0  0  0
    8.2723   -3.3409    1.9443 C   0  0  0  0  0  0  0  0  0  0  0  0
    7.0991   -3.1363    1.2753 C   0  0  0  0  0  0  0  0  0  0  0  0
    6.4742   -1.8740    1.2259 C   0  0  0  0  0  0  0  0  0  0  0  0
    5.1695   -1.7061    0.6208 C   0  0  0  0  0  0  0  0  0  0  0  0
    5.0497   -1.8637   -0.8983 C   0  0  2  0  0  0  0  0  0  0  0  0
    5.9065   -0.8417   -1.5905 C   0  0  0  0  0  0  0  0  0  0  0  0
    6.8912   -0.0627   -1.1855 C   0  0  0  0  0  0  0  0  0  0  0  0
    7.5621    0.8233   -2.0356 C   0  0  0  0  0  0  0  0  0  0  0  0
    8.5937    1.6381   -1.6180 O   0  0  0  0  0  0  0  0  0  0  0  0
    9.1339    1.7252   -0.3473 C   0  0  0  0  0  0  0  0  0  0  0  0
    7.1948    0.9100   -3.3777 C   0  0  0  0  0  0  0  0  0  0  0  0
    7.8771    1.7938   -4.1863 O   0  0  0  0  0  0  0  0  0  0  0  0
    7.6217    1.9901   -5.5478 C   0  0  0  0  0  0  0  0  0  0  0  0
    6.1675    0.1052   -3.8272 C   0  0  0  0  0  0  0  0  0  0  0  0
    5.5365   -0.7516   -2.9548 C   0  0  0  0  0  0  0  0  0  0  0  0
    4.4343   -1.6748   -3.3156 C   0  0  0  0  0  0  0  0  0  0  0  0
    3.2641   -1.3129   -2.4119 C   0  0  0  0  0  0  0  0  0  0  0  0
    3.6588   -1.0894   -1.0601 N   0  0  1  0  0  0  0  0  0  0  0  0
    2.8425   -1.7714   -0.0782 C   0  0  0  0  0  0  0  0  0  0  0  0
    3.9221    0.2680   -0.8208 C   0  0  0  0  0  0  0  0  0  0  0  0
    2.7478    0.9956   -0.2854 C   0  0  0  0  0  0  0  0  0  0  0  0
    1.5506    1.0383   -1.1359 C   0  0  0  0  0  0  0  0  0  0  0  0
    0.7340    0.0811   -1.2995 O   0  0  0  0  0  0  0  0  0  0  0  0
    1.1984    2.1932   -1.8657 O   0  0  0  0  0  0  0  0  0  0  0  0
    0.0416    2.2353   -2.6796 C   0  0  0  0  0  0  0  0  0  0  0  0
   -0.0653    3.5721   -3.3369 C   0  0  0  0  0  0  0  0  0  0  0  0
   -0.1742    4.7271   -2.4178 C   0  0  0  0  0  0  0  0  0  0  0  0
   -1.4073    4.6588   -1.5757 C   0  0  0  0  0  0  0  0  0  0  0  0
   -1.4223    3.4299   -0.7633 C   0  0  0  0  0  0  0  0  0  0  0  0
   -2.5553    3.3307    0.0659 O   0  0  0  0  0  0  0  0  0  0  0  0
   -2.8010    2.2503    0.8996 C   0  0  0  0  0  0  0  0  0  0  0  0
   -1.9985    1.2905    0.9374 O   0  0  0  0  0  0  0  0  0  0  0  0
   -3.9884    2.1663    1.7692 C   0  0  0  0  0  0  0  0  0  0  0  0
   -3.9899    0.8680    2.4673 C   0  0  0  0  0  0  0  0  0  0  0  0
   -5.0116    0.5881    3.3641 N   0  0  2  0  0  0  0  0  0  0  0  0
   -5.4242    1.8246    4.0200 C   0  0  0  0  0  0  0  0  0  0  0  0
   -4.7554   -0.4591    4.3428 C   0  0  0  0  0  0  0  0  0  0  0  0
   -5.0654   -1.8386    3.8019 C   0  0  0  0  0  0  0  0  0  0  0  0
   -4.8316   -1.8592    2.3311 C   0  0  0  0  0  0  0  0  0  0  0  0
   -4.0390   -2.7646    1.6779 C   0  0  0  0  0  0  0  0  0  0  0  0
   -3.8298   -2.6587    0.2995 C   0  0  0  0  0  0  0  0  0  0  0  0
   -3.0447   -3.5365   -0.4210 O   0  0  0  0  0  0  0  0  0  0  0  0
   -2.3709   -4.6349    0.1632 C   0  0  0  0  0  0  0  0  0  0  0  0
   -4.4591   -1.6071   -0.3401 C   0  0  0  0  0  0  0  0  0  0  0  0
   -4.2619   -1.4802   -1.6922 O   0  0  0  0  0  0  0  0  0  0  0  0
   -4.7939   -0.4807   -2.5193 C   0  0  0  0  0  0  0  0  0  0  0  0
   -5.2708   -0.6927    0.3589 C   0  0  0  0  0  0  0  0  0  0  0  0
   -5.4525   -0.8114    1.6404 C   0  0  0  0  0  0  0  0  0  0  0  0
   -6.2961    0.0612    2.6280 C   0  0  2  0  0  0  0  0  0  0  0  0
   -6.5530    1.3523    1.7216 C   0  0  0  0  0  0  0  0  0  0  0  0
   -7.8487    1.1044    1.0268 C   0  0  0  0  0  0  0  0  0  0  0  0
   -9.0316    1.5041    1.7049 C   0  0  0  0  0  0  0  0  0  0  0  0
  -10.2802    1.3495    1.1878 C   0  0  0  0  0  0  0  0  0  0  0  0
  -10.4676    0.7850   -0.0486 C   0  0  0  0  0  0  0  0  0  0  0  0
  -11.7486    0.6148   -0.6034 O   0  0  0  0  0  0  0  0  0  0  0  0
  -12.8800    1.0401    0.1395 C   0  0  0  0  0  0  0  0  0  0  0  0
   -9.3357    0.3814   -0.7419 C   0  0  0  0  0  0  0  0  0  0  0  0
   -9.5893   -0.1803   -1.9813 O   0  0  0  0  0  0  0  0  0  0  0  0
   -8.6145   -0.6607   -2.8677 C   0  0  0  0  0  0  0  0  0  0  0  0
   -8.0815    0.5503   -0.1936 C   0  0  0  0  0  0  0  0  0  0  0  0
    7.1672   -0.8739    1.9199 C   0  0  0  0  0  0  0  0  0  0  0  0
    8.3425   -1.0852    2.5913 C   0  0  0  0  0  0  0  0  0  0  0  0
    8.9866   -0.0706    3.2742 O   0  0  0  0  0  0  0  0  0  0  0  0
    8.4892    1.2218    3.3528 C   0  0  0  0  0  0  0  0  0  0  0  0
  1  2  1  0
  2  3  1  0
  3  4  2  0
  4  5  1  0
  5  6  2  0
  6  7  1  0
  8  7  1  1
  8  9  1  0
  9 10  2  0
 10 11  1  0
 11 12  1  0
 12 13  1  0
 11 14  2  0
 14 15  1  0
 15 16  1  0
 14 17  1  0
 17 18  2  0
 18 19  1  0
 19 20  1  0
 20 21  1  0
 21 22  1  1
 21 23  1  0
 23 24  1  0
 24 25  1  0
 25 26  2  0
 25 27  1  0
 27 28  1  0
 28 29  1  0
 29 30  1  0
 30 31  1  0
 31 32  1  0
 32 33  1  0
 33 34  1  0
 34 35  2  0
 34 36  1  0
 36 37  1  0
 37 38  1  0
 38 39  1  1
 38 40  1  0
 40 41  1  0
 41 42  1  0
 42 43  2  0
 43 44  1  0
 44 45  1  0
 45 46  1  0
 44 47  2  0
 47 48  1  0
 48 49  1  0
 47 50  1  0
 50 51  2  0
 51 52  1  0
 52 53  1  6
 53 54  1  0
 54 55  2  0
 55 56  1  0
 56 57  2  0
 57 58  1  0
 58 59  1  0
 57 60  1  0
 60 61  1  0
 61 62  1  0
 60 63  2  0
  6 64  1  0
 64 65  2  0
 65 66  1  0
 66 67  1  0
 65  3  1  0
 21  8  1  0
 52 38  1  0
 63 54  1  0
 18  9  1  0
 51 42  1  0
M  CHG  2  21   1  38   1
M  END
>  <zinc_id>  (103) 
ZINC000238809662

>  <smiles>  (103) 
COc1ccc(C[C@H]2c3cc(OC)c(OC)cc3CC[N@@+]2(C)CCC(=O)OCCCCCOC(=O)CC[N@@+]2(C)CCc3cc(OC)c(OC)cc3[C@H]2Cc2ccc(OC)c(OC)c2)cc1OC

$$$$
